%nprocs=16
%mem=16GB
%chk=pyrd4_conf-6.chk
# B3LYP/6-31G(d,p) symmetry=loose empiricaldispersion=GD3BJ int=(grid=ultrafine) opt freq=noraman

 pyrd4.xyz

0 1
O    2.06810    -1.49480    4.24820
C    1.69110    -0.38270    3.87970
N    2.43610    0.73880    3.93100
C    3.73300    0.90830    4.43050
N    4.26670    0.03810    5.33050
C    5.51810    0.27340    5.79370
C    6.27470    1.37570    5.39510
C    5.72340    2.27720    4.48000
C    6.53330    3.48910    4.03210
C    6.48060    4.02650    2.61740
C    5.90070    4.83740    3.75790
C    4.43100    2.03880    3.99500
C    0.32030    -0.20860    3.26290
C    -0.39210    0.99710    3.37720
C    -1.65230    1.12710    2.79860
C    -2.22480    0.06030    2.10410
B    -3.65780    0.21240    1.44840
O    -4.30100    -0.78510    0.75110
C    -5.64190    -0.37090    0.56530
C    -6.11300    -0.95810    -0.78050
C    -6.43810    -0.99730    1.73750
C    -5.49600    1.19450    0.60170
C    -5.03610    1.85490    -0.72200
C    -6.70000    1.95450    1.19370
O    -4.41730    1.35960    1.50420
C    -1.52720    -1.14400    1.99950
C    -0.26770    -1.27970    2.57700
H    2.04070    1.52870    3.45930
H    5.90600    -0.44820    6.49830
H    7.26850    1.52310    5.79030
H    7.51820    3.53100    4.50210
H    5.81410    3.54710    1.89890
H    7.41400    4.34760    2.15250
H    6.42440    5.73180    4.09870
H    4.81900    4.93940    3.85460
H    3.98790    2.72090    3.28680
H    0.00560    1.83680    3.92940
H    -2.19590    2.05670    2.89450
H    -6.14290    -2.04770    -0.74850
H    -5.44710    -0.68980    -1.60080
H    -7.11240    -0.60510    -1.03330
H    -7.50080    -0.76910    1.66110
H    -6.08970    -0.63320    2.70500
H    -6.33760    -2.08320    1.75190
H    -5.82100    1.81630    -1.47690
H    -4.15470    1.36310    -1.13540
H    -4.77600    2.90380    -0.57480
H    -7.59590    1.79620    0.59390
H    -6.51100    3.02780    1.23330
H    -6.92220    1.64020    2.21360
H    -1.96690    -1.97860    1.47140
H    0.25280    -2.22510    2.49010

--Link1--
%nprocs=16
%mem=16GB
%chk=pyrd4_conf-6.chk
# M062X/def2tzvp int=(grid=ultrafine) pop=nbo7 polar prop=efg volume guess=read geom=check

 pyrd4.xyz

0 1

--Link1--
%nprocs=16
%mem=16GB
%chk=pyrd4_conf-6.chk
# M062X/def2tzvp int=(grid=ultrafine) nmr=giao guess=read geom=check

 pyrd4.xyz

0 1

