%nprocs=16
%mem=16GB
%chk=pyrd4_conf-8.chk
# B3LYP/6-31G(d,p) symmetry=loose empiricaldispersion=GD3BJ int=(grid=ultrafine) opt freq=noraman

 pyrd4.xyz

0 1
O    2.12400    -1.47730    3.86200
C    1.67740    -0.35630    3.61990
N    2.36780    0.79290    3.75420
C    3.67470    0.98200    4.21940
N    4.28860    0.05740    5.00720
C    5.54520    0.31270    5.44490
C    6.22840    1.48770    5.13100
C    5.59360    2.44470    4.33100
C    6.28380    3.75080    3.95220
C    7.20000    4.49330    4.90230
C    7.76790    3.83330    3.66290
C    4.29680    2.18580    3.87360
C    0.27470    -0.19630    3.07530
C    -0.49070    0.95300    3.33510
C    -1.77930    1.07130    2.81990
C    -2.32770    0.04800    2.04520
B    -3.79300    0.18660    1.46200
O    -4.60500    1.28100    1.65950
C    -5.71140    1.14720    0.78600
C    -6.92520    1.78130    1.49480
C    -5.34090    1.95650    -0.48200
C    -5.78170    -0.41280    0.60010
C    -6.49580    -1.19130    1.73330
C    -6.27980    -0.89070    -0.77880
O    -4.41540    -0.77130    0.69390
C    -1.57670    -1.10170    1.79570
C    -0.28860    -1.22560    2.30920
H    1.91400    1.60280    3.37850
H    5.99790    -0.45270    6.05880
H    7.22890    1.64800    5.50220
H    5.65840    4.38870    3.32450
H    7.39970    4.06130    5.88400
H    7.12950    5.58120    4.94440
H    8.09810    4.45440    2.82890
H    8.37220    2.93000    3.75970
H    3.79120    2.91020    3.25420
H    -0.11170    1.75530    3.95230
H    -2.36340    1.95710    3.02770
H    -7.08840    1.35810    2.48610
H    -7.83680    1.63470    0.91600
H    -6.78770    2.85420    1.63350
H    -6.15420    1.94980    -1.20720
H    -4.45460    1.55460    -0.97470
H    -5.12660    2.99850    -0.24130
H    -7.57070    -1.01340    1.71950
H    -6.12510    -0.90480    2.71840
H    -6.34160    -2.26660    1.63620
H    -7.30510    -0.56830    -0.95800
H    -6.25480    -1.97830    -0.85390
H    -5.66320    -0.50910    -1.59270
H    -1.99690    -1.90330    1.20450
H    0.27360    -2.12900    2.10960

--Link1--
%nprocs=16
%mem=16GB
%chk=pyrd4_conf-8.chk
# M062X/def2tzvp int=(grid=ultrafine) pop=nbo7 polar prop=efg volume guess=read geom=check

 pyrd4.xyz

0 1

--Link1--
%nprocs=16
%mem=16GB
%chk=pyrd4_conf-8.chk
# M062X/def2tzvp int=(grid=ultrafine) nmr=giao guess=read geom=check

 pyrd4.xyz

0 1

