%nprocs=16
%mem=16GB
%chk=pyrd6_conf-2.chk
# B3LYP/6-31G(d,p) symmetry=loose empiricaldispersion=GD3BJ int=(grid=ultrafine) opt freq=noraman

 pyrd6.xyz

0 1
Br    4.85490    -1.93360    -2.86120
C    3.62130    -1.10570    -1.67290
C    4.03370    -0.80200    -0.37540
C    3.13150    -0.18420    0.49340
C    3.54030    0.16220    1.91130
C    1.83900    0.09730    0.04400
C    1.48490    -0.25120    -1.26890
N    0.23160    -0.00630    -1.84140
C    -1.01830    0.20370    -1.28120
O    -1.04450    -0.02570    0.05540
C    -2.20740    0.06890    0.88370
C    -2.78070    1.50070    0.89930
C    -1.68320    -0.27940    2.28510
C    -3.28200    -0.95880    0.47440
O    -1.99560    0.51650    -1.95300
N    2.36960    -0.83050    -2.11850
H    5.03930    -1.03840    -0.06150
H    2.71050    -0.00390    2.59920
H    4.36260    -0.46670    2.25410
H    3.83830    1.20870    1.97860
H    1.14670    0.59400    0.70480
H    0.22070    -0.02080    -2.84630
H    -3.57790    1.60340    1.63520
H    -2.00870    2.23150    1.13920
H    -3.19710    1.78020    -0.06860
H    -2.47870    -0.25230    3.02990
H    -0.90750    0.41770    2.60320
H    -1.24430    -1.27760    2.30580
H    -3.70780    -0.73180    -0.50300
H    -2.86270    -1.96320    0.41560
H    -4.10510    -0.98220    1.18810

--Link1--
%nprocs=16
%mem=16GB
%chk=pyrd6_conf-2.chk
# M062X/def2tzvp int=(grid=ultrafine) pop=nbo7 polar prop=efg volume guess=read geom=check

 pyrd6.xyz

0 1

--Link1--
%nprocs=16
%mem=16GB
%chk=pyrd6_conf-2.chk
# M062X/def2tzvp int=(grid=ultrafine) nmr=giao guess=read geom=check

 pyrd6.xyz

0 1

