pyrd5.xyz
                    3D
 Schrodinger Suite 2022-4.
 17 17  0  0  1  0            999 V2000
    0.2130    3.6524   -0.6101 Cl  0  0  0  0  0  0
    0.0669    1.9576   -0.3256 C   0  0  0  0  0  0
   -1.1739    1.4097   -0.2871 N   0  0  0  0  0  0
   -1.2897    0.0709   -0.0648 C   0  0  0  0  0  0
   -2.7181   -0.4827   -0.0362 C   0  0  0  0  0  0
   -2.7330   -1.7994    0.1863 F   0  0  0  0  0  0
   -3.4200    0.1066    0.9332 F   0  0  0  0  0  0
   -3.3224   -0.2555   -1.2036 F   0  0  0  0  0  0
   -0.1684   -0.7495    0.1253 C   0  0  0  0  0  0
    1.1049   -0.1742    0.0887 C   0  0  0  0  0  0
    2.3408   -1.0328    0.2755 C   0  0  0  0  0  0
    1.2239    1.1985   -0.1444 C   0  0  0  0  0  0
   -0.2850   -1.8099    0.2992 H   0  0  0  0  0  0
    3.1988   -0.6084   -0.2473 H   0  0  0  0  0  0
    2.5843   -1.1298    1.3338 H   0  0  0  0  0  0
    2.1869   -2.0299   -0.1388 H   0  0  0  0  0  0
    2.1911    1.6767   -0.1843 H   0  0  0  0  0  0
  1  2  1  0  0  0
  2 12  1  0  0  0
  2  3  2  0  0  0
  3  4  1  0  0  0
  4  9  2  0  0  0
  4  5  1  0  0  0
  5  7  1  0  0  0
  5  6  1  0  0  0
  5  8  1  0  0  0
  9 13  1  0  0  0
  9 10  1  0  0  0
 10 11  1  0  0  0
 10 12  2  0  0  0
 11 16  1  0  0  0
 11 15  1  0  0  0
 11 14  1  0  0  0
 12 17  1  0  0  0
M  END
> <r_mmod_Potential_Energy-S-OPLS>
52.2732925415039

> <b_mmod_Minimization_Converged-S-OPLS>
1

> <r_mmod_RMS_Derivative-S-OPLS>
0.000778930436354131

> <i_mmod_Times_Found-S-OPLS>
100

> <r_mmod_Relative_Potential_Energy-S-OPLS>
0

> <i_mmod_Conformation-S-OPLS>
1

> <i_mmod_Serial_Number-S-OPLS>
1

$$$$
