pyrd9.xyz
                    3D
 Schrodinger Suite 2022-4.
 17 18  0  0  1  0            999 V2000
    2.2381   -1.1430   -0.0172 C   0  0  0  0  0  0
    0.7653   -0.7849    0.0170 C   0  0  0  0  0  0
   -0.0848   -1.8400    0.1101 N   0  0  0  0  0  0
   -1.4240   -1.6235    0.1476 C   0  0  0  0  0  0
   -2.4586   -2.9974    0.2661 Cl  0  0  0  0  0  0
   -2.0094   -0.3567    0.0958 C   0  0  0  0  0  0
   -1.1218    0.7181    0.0002 C   0  0  0  0  0  0
    0.2792    0.5310   -0.0413 C   0  0  0  0  0  0
    0.8148    1.8512   -0.1381 C   0  0  0  0  0  0
   -0.1362    2.7497   -0.1548 N   0  0  0  0  0  0
   -1.3038    2.0832   -0.0724 N   0  0  0  0  0  0
    2.6885   -0.7817   -0.9414 H   0  0  0  0  0  0
    2.4029   -2.2203    0.0394 H   0  0  0  0  0  0
    2.7544   -0.6790    0.8229 H   0  0  0  0  0  0
   -3.0799   -0.2324    0.1286 H   0  0  0  0  0  0
    1.8537    2.1415   -0.1938 H   0  0  0  0  0  0
   -2.1784    2.5842   -0.0689 H   0  0  0  0  0  0
  1  2  1  0  0  0
  1 14  1  0  0  0
  1 13  1  0  0  0
  1 12  1  0  0  0
  2  3  1  0  0  0
  2  8  2  0  0  0
  3  4  2  0  0  0
  4  5  1  0  0  0
  4  6  1  0  0  0
  6 15  1  0  0  0
  6  7  2  0  0  0
  7  8  1  0  0  0
  7 11  1  0  0  0
  8  9  1  0  0  0
  9 10  2  0  0  0
  9 16  1  0  0  0
 10 11  1  0  0  0
 11 17  1  0  0  0
M  END
> <r_mmod_Potential_Energy-S-OPLS>
-34.2052307128906

> <b_mmod_Minimization_Converged-S-OPLS>
1

> <r_mmod_RMS_Derivative-S-OPLS>
0.00044850684935227

> <i_mmod_Times_Found-S-OPLS>
1

> <r_mmod_Relative_Potential_Energy-S-OPLS>
0

> <i_mmod_Conformation-S-OPLS>
1

> <i_mmod_Serial_Number-S-OPLS>
1

$$$$
