pyrd6.xyz
                    3D
 Schrodinger Suite 2022-4.
 31 31  0  0  1  0            999 V2000
    4.4803   -2.0719   -3.3402 Br  0  0  0  0  0  0
    3.6445   -1.1521   -1.8998 C   0  0  0  0  0  0
    4.4443   -0.5197   -0.9476 C   0  0  0  0  0  0
    3.8304    0.1577    0.1083 C   0  0  0  0  0  0
    4.6623    0.8466    1.1717 C   0  0  0  0  0  0
    2.4356    0.1761    0.1853 C   0  0  0  0  0  0
    1.6920   -0.4815   -0.8070 C   0  0  0  0  0  0
    0.2968   -0.5337   -0.8431 N   0  0  0  0  0  0
   -0.6336    0.0048    0.0238 C   0  0  0  0  0  0
   -1.8612   -0.3179   -0.4391 O   0  0  0  0  0  0
   -3.0964    0.0563    0.1821 C   0  0  0  0  0  0
   -3.2757    1.5880    0.2166 C   0  0  0  0  0  0
   -3.2320   -0.5525    1.5930 C   0  0  0  0  0  0
   -4.1671   -0.5549   -0.7344 C   0  0  0  0  0  0
   -0.4145    0.6619    1.0390 O   0  0  0  0  0  0
    2.2892   -1.1352   -1.8348 N   0  0  0  0  0  0
    5.5195   -0.5583   -1.0359 H   0  0  0  0  0  0
    4.2076    0.7143    2.1543 H   0  0  0  0  0  0
    5.6667    0.4263    1.2302 H   0  0  0  0  0  0
    4.7311    1.9157    0.9695 H   0  0  0  0  0  0
    1.9570    0.6944    1.0018 H   0  0  0  0  0  0
   -0.0946   -1.0404   -1.6168 H   0  0  0  0  0  0
   -4.2715    1.8659    0.5612 H   0  0  0  0  0  0
   -2.5581    2.0650    0.8842 H   0  0  0  0  0  0
   -3.1317    2.0233   -0.7723 H   0  0  0  0  0  0
   -4.2256   -0.3829    2.0073 H   0  0  0  0  0  0
   -2.5135   -0.1222    2.2906 H   0  0  0  0  0  0
   -3.0571   -1.6282    1.5758 H   0  0  0  0  0  0
   -4.0906   -0.1632   -1.7493 H   0  0  0  0  0  0
   -4.0605   -1.6382   -0.8009 H   0  0  0  0  0  0
   -5.1738   -0.3434   -0.3736 H   0  0  0  0  0  0
  1  2  1  0  0  0
  2  3  1  0  0  0
  2 16  2  0  0  0
  3 17  1  0  0  0
  3  4  2  0  0  0
  4  5  1  0  0  0
  4  6  1  0  0  0
  5 19  1  0  0  0
  5 18  1  0  0  0
  5 20  1  0  0  0
  6 21  1  0  0  0
  6  7  2  0  0  0
  7 16  1  0  0  0
  7  8  1  0  0  0
  8  9  1  0  0  0
  8 22  1  0  0  0
  9 15  2  0  0  0
  9 10  1  0  0  0
 10 11  1  0  0  0
 11 13  1  0  0  0
 11 12  1  0  0  0
 11 14  1  0  0  0
 12 23  1  0  0  0
 12 24  1  0  0  0
 12 25  1  0  0  0
 13 27  1  0  0  0
 13 26  1  0  0  0
 13 28  1  0  0  0
 14 31  1  0  0  0
 14 29  1  0  0  0
 14 30  1  0  0  0
M  END
> <r_mmod_Potential_Energy-S-OPLS>
-333.477294921875

> <b_mmod_Minimization_Converged-S-OPLS>
1

> <r_mmod_RMS_Derivative-S-OPLS>
0.000819160602986813

> <i_mmod_Times_Found-S-OPLS>
122

> <r_mmod_Relative_Potential_Energy-S-OPLS>
0

> <i_mmod_Conformation-S-OPLS>
1

> <i_mmod_Serial_Number-S-OPLS>
1

$$$$
pyrd6.xyz
                    3D
 Schrodinger Suite 2022-4.
 31 31  0  0  1  0            999 V2000
    4.8549   -1.9336   -2.8612 Br  0  0  0  0  0  0
    3.6213   -1.1057   -1.6729 C   0  0  0  0  0  0
    4.0337   -0.8020   -0.3754 C   0  0  0  0  0  0
    3.1315   -0.1842    0.4934 C   0  0  0  0  0  0
    3.5403    0.1622    1.9113 C   0  0  0  0  0  0
    1.8390    0.0973    0.0440 C   0  0  0  0  0  0
    1.4849   -0.2512   -1.2689 C   0  0  0  0  0  0
    0.2316   -0.0063   -1.8414 N   0  0  0  0  0  0
   -1.0183    0.2037   -1.2812 C   0  0  0  0  0  0
   -1.0445   -0.0257    0.0554 O   0  0  0  0  0  0
   -2.2074    0.0689    0.8837 C   0  0  0  0  0  0
   -2.7807    1.5007    0.8993 C   0  0  0  0  0  0
   -1.6832   -0.2794    2.2851 C   0  0  0  0  0  0
   -3.2820   -0.9588    0.4744 C   0  0  0  0  0  0
   -1.9956    0.5165   -1.9530 O   0  0  0  0  0  0
    2.3696   -0.8305   -2.1185 N   0  0  0  0  0  0
    5.0393   -1.0384   -0.0615 H   0  0  0  0  0  0
    2.7105   -0.0039    2.5992 H   0  0  0  0  0  0
    4.3626   -0.4667    2.2541 H   0  0  0  0  0  0
    3.8383    1.2087    1.9786 H   0  0  0  0  0  0
    1.1467    0.5940    0.7048 H   0  0  0  0  0  0
    0.2207   -0.0208   -2.8463 H   0  0  0  0  0  0
   -3.5779    1.6034    1.6352 H   0  0  0  0  0  0
   -2.0087    2.2315    1.1392 H   0  0  0  0  0  0
   -3.1971    1.7802   -0.0686 H   0  0  0  0  0  0
   -2.4787   -0.2523    3.0299 H   0  0  0  0  0  0
   -0.9075    0.4177    2.6032 H   0  0  0  0  0  0
   -1.2443   -1.2776    2.3058 H   0  0  0  0  0  0
   -3.7078   -0.7318   -0.5030 H   0  0  0  0  0  0
   -2.8627   -1.9632    0.4156 H   0  0  0  0  0  0
   -4.1051   -0.9822    1.1881 H   0  0  0  0  0  0
  1  2  1  0  0  0
  2  3  1  0  0  0
  2 16  2  0  0  0
  3 17  1  0  0  0
  3  4  2  0  0  0
  4  5  1  0  0  0
  4  6  1  0  0  0
  5 19  1  0  0  0
  5 18  1  0  0  0
  5 20  1  0  0  0
  6 21  1  0  0  0
  6  7  2  0  0  0
  7 16  1  0  0  0
  7  8  1  0  0  0
  8  9  1  0  0  0
  8 22  1  0  0  0
  9 15  2  0  0  0
  9 10  1  0  0  0
 10 11  1  0  0  0
 11 13  1  0  0  0
 11 12  1  0  0  0
 11 14  1  0  0  0
 12 23  1  0  0  0
 12 24  1  0  0  0
 12 25  1  0  0  0
 13 27  1  0  0  0
 13 26  1  0  0  0
 13 28  1  0  0  0
 14 31  1  0  0  0
 14 29  1  0  0  0
 14 30  1  0  0  0
M  END
> <r_mmod_Potential_Energy-S-OPLS>
-323.01025390625

> <b_mmod_Minimization_Converged-S-OPLS>
1

> <r_mmod_RMS_Derivative-S-OPLS>
0.000940383994020522

> <i_mmod_Times_Found-S-OPLS>
124

> <r_mmod_Relative_Potential_Energy-S-OPLS>
10.467041015625

> <i_mmod_Conformation-S-OPLS>
2

> <i_mmod_Serial_Number-S-OPLS>
1

$$$$
pyrd6.xyz
                    3D
 Schrodinger Suite 2022-4.
 31 31  0  0  1  0            999 V2000
    2.1921   -2.0347   -3.3458 Br  0  0  0  0  0  0
    2.5481   -1.0490   -1.7582 C   0  0  0  0  0  0
    3.8640   -0.9392   -1.3088 C   0  0  0  0  0  0
    4.1220   -0.2124   -0.1443 C   0  0  0  0  0  0
    5.5373   -0.0811    0.3827 C   0  0  0  0  0  0
    3.0544    0.3739    0.5413 C   0  0  0  0  0  0
    1.7571    0.2219    0.0418 C   0  0  0  0  0  0
    0.7334    0.8498    0.7679 N   0  0  0  0  0  0
   -0.6483    0.7365    0.7061 C   0  0  0  0  0  0
   -1.0699   -0.1818   -0.1964 O   0  0  0  0  0  0
   -2.4348   -0.4975   -0.4800 C   0  0  0  0  0  0
   -2.3355   -1.5723   -1.5730 C   0  0  0  0  0  0
   -3.1973    0.7225   -1.0357 C   0  0  0  0  0  0
   -3.1488   -1.0888    0.7524 C   0  0  0  0  0  0
   -1.3888    1.4009    1.4245 O   0  0  0  0  0  0
    1.5100   -0.4766   -1.1006 N   0  0  0  0  0  0
    4.6620   -1.4111   -1.8620 H   0  0  0  0  0  0
    6.1511   -0.9303    0.0802 H   0  0  0  0  0  0
    5.9983    0.8371    0.0180 H   0  0  0  0  0  0
    5.5442   -0.0647    1.4731 H   0  0  0  0  0  0
    3.2360    0.9349    1.4462 H   0  0  0  0  0  0
    1.0378    1.4675    1.4980 H   0  0  0  0  0  0
   -1.8084   -1.1952   -2.4503 H   0  0  0  0  0  0
   -1.7804   -2.4428   -1.2216 H   0  0  0  0  0  0
   -3.3192   -1.9125   -1.8961 H   0  0  0  0  0  0
   -2.6644    1.1674   -1.8760 H   0  0  0  0  0  0
   -3.3174    1.5014   -0.2829 H   0  0  0  0  0  0
   -4.1938    0.4474   -1.3802 H   0  0  0  0  0  0
   -4.1427   -1.4567    0.4991 H   0  0  0  0  0  0
   -2.5820   -1.9198    1.1720 H   0  0  0  0  0  0
   -3.2683   -0.3493    1.5440 H   0  0  0  0  0  0
  1  2  1  0  0  0
  2  3  1  0  0  0
  2 16  2  0  0  0
  3 17  1  0  0  0
  3  4  2  0  0  0
  4  5  1  0  0  0
  4  6  1  0  0  0
  5 19  1  0  0  0
  5 18  1  0  0  0
  5 20  1  0  0  0
  6 21  1  0  0  0
  6  7  2  0  0  0
  7 16  1  0  0  0
  7  8  1  0  0  0
  8  9  1  0  0  0
  8 22  1  0  0  0
  9 15  2  0  0  0
  9 10  1  0  0  0
 10 11  1  0  0  0
 11 13  1  0  0  0
 11 12  1  0  0  0
 11 14  1  0  0  0
 12 23  1  0  0  0
 12 24  1  0  0  0
 12 25  1  0  0  0
 13 27  1  0  0  0
 13 26  1  0  0  0
 13 28  1  0  0  0
 14 31  1  0  0  0
 14 29  1  0  0  0
 14 30  1  0  0  0
M  END
> <r_mmod_Potential_Energy-S-OPLS>
-317.058227539062

> <b_mmod_Minimization_Converged-S-OPLS>
1

> <r_mmod_RMS_Derivative-S-OPLS>
0.000710134976543486

> <i_mmod_Times_Found-S-OPLS>
104

> <r_mmod_Relative_Potential_Energy-S-OPLS>
16.4190673828125

> <i_mmod_Conformation-S-OPLS>
3

> <i_mmod_Serial_Number-S-OPLS>
1

$$$$
