%nprocs=16
%mem=16GB
%chk=pyrd4_conf-7.chk
# B3LYP/6-31G(d,p) symmetry=loose empiricaldispersion=GD3BJ int=(grid=ultrafine) opt freq=noraman

 pyrd4.xyz

0 1
O    1.02720    1.39830    5.80170
C    1.11840    1.11140    4.60840
N    2.27390    1.04680    3.91830
C    3.58250    1.23630    4.37870
N    3.89930    1.09600    5.69480
C    5.18940    1.26820    6.07130
C    6.20520    1.57080    5.16430
C    5.88270    1.70340    3.80890
C    6.94560    2.03160    2.76570
C    8.10190    2.96770    3.04810
C    8.35730    1.48900    2.84230
C    4.55170    1.52930    3.41410
C    -0.12770    0.85690    3.78860
C    -0.11950    -0.01260    2.68470
C    -1.28270    -0.22670    1.94930
C    -2.47100    0.41430    2.30320
B    -3.79080    0.16780    1.46440
O    -3.86690    -0.65740    0.36470
C    -5.23950    -0.82910    0.06260
C    -5.34800    -0.99470    -1.46670
C    -5.66430    -2.13480    0.78010
C    -5.85800    0.49630    0.64040
C    -5.74240    1.74300    -0.27200
C    -7.29000    0.36710    1.19780
O    -5.00640    0.75110    1.74230
C    -2.48780    1.26810    3.40710
C    -1.32820    1.48480    4.14640
H    2.16720    0.94560    2.92770
H    5.39400    1.15760    7.12660
H    7.21940    1.69930    5.51010
H    6.53470    2.10220    1.75660
H    8.19580    3.39920    4.04580
H    8.39570    3.67500    2.27110
H    8.83230    1.15140    1.92000
H    8.63430    0.86500    3.69340
H    4.28260    1.62930    2.37410
H    0.77380    -0.54770    2.39510
H    -1.26910    -0.90020    1.10370
H    -4.87480    -0.17210    -2.00300
H    -6.39000    -1.04230    -1.78200
H    -4.85660    -1.90850    -1.80230
H    -6.70600    -2.37910    0.57360
H    -5.55060    -2.05830    1.86230
H    -5.05960    -2.98270    0.45600
H    -6.39960    1.66240    -1.13740
H    -4.72530    1.88330    -0.64000
H    -6.01600    2.65390    0.26200
H    -7.99090    0.08090    0.41410
H    -7.63520    1.30880    1.62580
H    -7.35550    -0.37720    1.99170
H    -3.40590    1.76140    3.69410
H    -1.36540    2.14530    5.00350

--Link1--
%nprocs=16
%mem=16GB
%chk=pyrd4_conf-7.chk
# M062X/def2tzvp int=(grid=ultrafine) pop=nbo7 polar prop=efg volume guess=read geom=check

 pyrd4.xyz

0 1

--Link1--
%nprocs=16
%mem=16GB
%chk=pyrd4_conf-7.chk
# M062X/def2tzvp int=(grid=ultrafine) nmr=giao guess=read geom=check

 pyrd4.xyz

0 1

