%nprocs=16
%mem=16GB
%chk=pyrd6_conf-3.chk
# B3LYP/6-31G(d,p) symmetry=loose empiricaldispersion=GD3BJ int=(grid=ultrafine) opt freq=noraman

 pyrd6.xyz

0 1
Br    2.19210    -2.03470    -3.34580
C    2.54810    -1.04900    -1.75820
C    3.86400    -0.93920    -1.30880
C    4.12200    -0.21240    -0.14430
C    5.53730    -0.08110    0.38270
C    3.05440    0.37390    0.54130
C    1.75710    0.22190    0.04180
N    0.73340    0.84980    0.76790
C    -0.64830    0.73650    0.70610
O    -1.06990    -0.18180    -0.19640
C    -2.43480    -0.49750    -0.48000
C    -2.33550    -1.57230    -1.57300
C    -3.19730    0.72250    -1.03570
C    -3.14880    -1.08880    0.75240
O    -1.38880    1.40090    1.42450
N    1.51000    -0.47660    -1.10060
H    4.66200    -1.41110    -1.86200
H    6.15110    -0.93030    0.08020
H    5.99830    0.83710    0.01800
H    5.54420    -0.06470    1.47310
H    3.23600    0.93490    1.44620
H    1.03780    1.46750    1.49800
H    -1.80840    -1.19520    -2.45030
H    -1.78040    -2.44280    -1.22160
H    -3.31920    -1.91250    -1.89610
H    -2.66440    1.16740    -1.87600
H    -3.31740    1.50140    -0.28290
H    -4.19380    0.44740    -1.38020
H    -4.14270    -1.45670    0.49910
H    -2.58200    -1.91980    1.17200
H    -3.26830    -0.34930    1.54400

--Link1--
%nprocs=16
%mem=16GB
%chk=pyrd6_conf-3.chk
# M062X/def2tzvp int=(grid=ultrafine) pop=nbo7 polar prop=efg volume guess=read geom=check

 pyrd6.xyz

0 1

--Link1--
%nprocs=16
%mem=16GB
%chk=pyrd6_conf-3.chk
# M062X/def2tzvp int=(grid=ultrafine) nmr=giao guess=read geom=check

 pyrd6.xyz

0 1

