pyrd8.xyz
                    3D
 Schrodinger Suite 2022-4.
 20 21  0  0  1  0            999 V2000
   -1.1258   -4.0533   -0.8878 Br  0  0  0  0  0  0
   -0.9122   -2.2111   -0.4629 C   0  0  0  0  0  0
    0.3427   -1.7090   -0.3452 N   0  0  0  0  0  0
    0.4971   -0.3904   -0.0434 C   0  0  0  0  0  0
    1.8990    0.1298    0.0763 C   0  0  0  0  0  0
    2.3673    1.4159    0.3745 C   0  0  0  0  0  0
    3.6722    1.5940    0.4148 N   0  0  0  0  0  0
    4.3066    0.4834    0.1565 C   0  0  0  0  0  0
    3.3055   -0.8893   -0.1613 S   0  0  0  0  0  0
   -0.6028    0.4536    0.1482 C   0  0  0  0  0  0
   -1.8930   -0.0710    0.0304 C   0  0  0  0  0  0
   -3.1047    0.8209    0.2177 C   0  0  0  0  0  0
   -2.0496   -1.4231   -0.2841 C   0  0  0  0  0  0
    1.7380    2.2698    0.5734 H   0  0  0  0  0  0
    5.3818    0.4038    0.1372 H   0  0  0  0  0  0
   -0.4568    1.4952    0.3852 H   0  0  0  0  0  0
   -3.3770    0.8800    1.2716 H   0  0  0  0  0  0
   -3.9590    0.4500   -0.3497 H   0  0  0  0  0  0
   -2.9022    1.8287   -0.1465 H   0  0  0  0  0  0
   -3.0296   -1.8633   -0.3883 H   0  0  0  0  0  0
  1  2  1  0  0  0
  2 13  2  0  0  0
  2  3  1  0  0  0
  3  4  2  0  0  0
  4 10  1  0  0  0
  4  5  1  0  0  0
  5  6  2  0  0  0
  5  9  1  0  0  0
  6 14  1  0  0  0
  6  7  1  0  0  0
  7  8  2  0  0  0
  8 15  1  0  0  0
  8  9  1  0  0  0
 10 16  1  0  0  0
 10 11  2  0  0  0
 11 12  1  0  0  0
 11 13  1  0  0  0
 12 17  1  0  0  0
 12 18  1  0  0  0
 12 19  1  0  0  0
 13 20  1  0  0  0
M  END
> <r_mmod_Potential_Energy-S-OPLS>
-24.0103874206543

> <b_mmod_Minimization_Converged-S-OPLS>
1

> <r_mmod_RMS_Derivative-S-OPLS>
0.000469309103209525

> <i_mmod_Times_Found-S-OPLS>
42

> <r_mmod_Relative_Potential_Energy-S-OPLS>
0

> <i_mmod_Conformation-S-OPLS>
1

> <i_mmod_Serial_Number-S-OPLS>
1

$$$$
pyrd8.xyz
                    3D
 Schrodinger Suite 2022-4.
 20 21  0  0  1  0            999 V2000
   -1.0742   -4.0524   -0.8873 Br  0  0  0  0  0  0
   -0.8916   -2.2070   -0.4619 C   0  0  0  0  0  0
    0.3548   -1.6852   -0.3397 N   0  0  0  0  0  0
    0.4882   -0.3653   -0.0376 C   0  0  0  0  0  0
    1.9040    0.1116    0.0720 C   0  0  0  0  0  0
    3.1080   -0.5845   -0.0897 C   0  0  0  0  0  0
    4.2279    0.0912    0.0663 N   0  0  0  0  0  0
    3.9839    1.3402    0.3555 C   0  0  0  0  0  0
    2.3114    1.7693    0.4556 S   0  0  0  0  0  0
   -0.6267    0.4623    0.1500 C   0  0  0  0  0  0
   -1.9078   -0.0828    0.0274 C   0  0  0  0  0  0
   -3.1338    0.7902    0.2104 C   0  0  0  0  0  0
   -2.0419   -1.4372   -0.2874 C   0  0  0  0  0  0
    3.1690   -1.6358   -0.3329 H   0  0  0  0  0  0
    4.7592    2.0703    0.5242 H   0  0  0  0  0  0
   -0.5019    1.5069    0.3876 H   0  0  0  0  0  0
   -3.4025    0.8561    1.2648 H   0  0  0  0  0  0
   -3.9841    0.4004   -0.3501 H   0  0  0  0  0  0
   -2.9483    1.7976   -0.1640 H   0  0  0  0  0  0
   -3.0145   -1.8926   -0.3951 H   0  0  0  0  0  0
  1  2  1  0  0  0
  2 13  2  0  0  0
  2  3  1  0  0  0
  3  4  2  0  0  0
  4 10  1  0  0  0
  4  5  1  0  0  0
  5  6  2  0  0  0
  5  9  1  0  0  0
  6 14  1  0  0  0
  6  7  1  0  0  0
  7  8  2  0  0  0
  8 15  1  0  0  0
  8  9  1  0  0  0
 10 16  1  0  0  0
 10 11  2  0  0  0
 11 12  1  0  0  0
 11 13  1  0  0  0
 12 17  1  0  0  0
 12 18  1  0  0  0
 12 19  1  0  0  0
 13 20  1  0  0  0
M  END
> <r_mmod_Potential_Energy-S-OPLS>
-20.0156993865967

> <b_mmod_Minimization_Converged-S-OPLS>
1

> <r_mmod_RMS_Derivative-S-OPLS>
0.000918665551580489

> <i_mmod_Times_Found-S-OPLS>
58

> <r_mmod_Relative_Potential_Energy-S-OPLS>
3.99468803405762

> <i_mmod_Conformation-S-OPLS>
2

> <i_mmod_Serial_Number-S-OPLS>
1

$$$$
