pyrd3.xyz
                    3D
 Schrodinger Suite 2022-4.
 14 14  0  0  1  0            999 V2000
   -2.5381    2.4379   -0.1031 Br  0  0  0  0  0  0
   -1.4170    0.9019   -0.0542 C   0  0  0  0  0  0
   -0.0297    1.0464   -0.0088 C   0  0  0  0  0  0
    0.7585   -0.1071    0.0262 C   0  0  0  0  0  0
    2.2702   -0.0349    0.0763 C   0  0  0  0  0  0
    0.2318   -1.3585    0.0179 N   0  0  0  0  0  0
   -1.1200   -1.4790   -0.0265 C   0  0  0  0  0  0
   -1.9767   -0.3764   -0.0634 C   0  0  0  0  0  0
    0.4134    2.0304   -0.0013 H   0  0  0  0  0  0
    2.6995   -0.5394   -0.7897 H   0  0  0  0  0  0
    2.6264    0.9952    0.0806 H   0  0  0  0  0  0
    2.6404   -0.5263    0.9763 H   0  0  0  0  0  0
   -1.5104   -2.4868   -0.0321 H   0  0  0  0  0  0
   -3.0483   -0.5035   -0.0983 H   0  0  0  0  0  0
  1  2  1  0  0  0
  2  3  2  0  0  0
  2  8  1  0  0  0
  3  4  1  0  0  0
  3  9  1  0  0  0
  4  5  1  0  0  0
  4  6  2  0  0  0
  5 12  1  0  0  0
  5 11  1  0  0  0
  5 10  1  0  0  0
  6  7  1  0  0  0
  7 13  1  0  0  0
  7  8  2  0  0  0
  8 14  1  0  0  0
M  END
> <r_mmod_Potential_Energy-S-OPLS>
-18.4498767852783

> <b_mmod_Minimization_Converged-S-OPLS>
1

> <r_mmod_RMS_Derivative-S-OPLS>
0.000930167967453599

> <i_mmod_Times_Found-S-OPLS>
1

> <r_mmod_Relative_Potential_Energy-S-OPLS>
0

> <i_mmod_Conformation-S-OPLS>
1

> <i_mmod_Serial_Number-S-OPLS>
1

$$$$
