%nprocs=16
%mem=16GB
%chk=pyrd7_conf-1.chk
# B3LYP/6-31G(d,p) symmetry=loose empiricaldispersion=GD3BJ int=(grid=ultrafine) opt freq=noraman

 pyrd7.xyz

0 1
F    -3.93320    1.83730    2.45400
C    -2.74710    2.19360    1.95770
F    -2.90560    3.29460    1.22510
C    -2.17030    1.08930    1.07180
C    -0.78860    0.87840    1.00330
C    -0.25910    -0.13330    0.19430
C    1.25070    -0.36140    0.12030
F    1.59000    -1.28920    1.01370
F    1.61130    -0.78490    -1.09230
F    1.92690    0.75640    0.39040
C    -1.13180    -0.93680    -0.54920
C    -2.51830    -0.74670    -0.49980
C    -3.43610    -1.60820    -1.29640
C    -3.12060    -2.00080    -2.60550
N    -3.92220    -2.78430    -3.37000
C    -5.09250    -3.20770    -2.83280
C    -5.50060    -2.86810    -1.54110
C    -6.81190    -3.38240    -0.97710
C    -4.65540    -2.06310    -0.77130
C    -3.02130    0.27320    0.31710
F    -1.93520    2.47510    2.97810
H    -0.12200    1.50450    1.58250
H    -0.72730    -1.73050    -1.16220
H    -2.20720    -1.67350    -3.08080
H    -5.70600    -3.83210    -3.46630
H    -7.08460    -4.33890    -1.42500
H    -6.73220    -3.55400    0.09710
H    -7.61480    -2.66700    -1.15710
H    -4.94280    -1.80320    0.23740
H    -4.08850    0.44330    0.35460

--Link1--
%nprocs=16
%mem=16GB
%chk=pyrd7_conf-1.chk
# M062X/def2tzvp int=(grid=ultrafine) pop=nbo7 polar prop=efg volume guess=read geom=check

 pyrd7.xyz

0 1

--Link1--
%nprocs=16
%mem=16GB
%chk=pyrd7_conf-1.chk
# M062X/def2tzvp int=(grid=ultrafine) nmr=giao guess=read geom=check

 pyrd7.xyz

0 1

