pyrd1.xyz
                    3D
 Schrodinger Suite 2022-4.
 19 20  0  0  1  0            999 V2000
    1.8498    2.9305   -0.5716 Br  0  0  0  0  0  0
    1.6953    1.0642   -0.2153 C   0  0  0  0  0  0
    0.4424    0.4532   -0.0453 C   0  0  0  0  0  0
    0.4259   -0.9360    0.1945 C   0  0  0  0  0  0
   -0.7272   -1.6631    0.4202 O   0  0  0  0  0  0
   -1.9192   -1.0935   -0.1239 C   0  0  0  0  0  0
   -2.0606    0.3661    0.3424 C   0  0  0  0  0  0
   -0.8731    1.2211   -0.1434 C   0  0  0  0  0  0
    1.6279   -1.6376    0.2754 C   0  0  0  0  0  0
    2.8380   -1.0461    0.1140 N   0  0  0  0  0  0
    2.8539    0.2887   -0.1286 C   0  0  0  0  0  0
   -1.8868   -1.1349   -1.2148 H   0  0  0  0  0  0
   -2.7751   -1.6867    0.2003 H   0  0  0  0  0  0
   -3.0034    0.7914   -0.0028 H   0  0  0  0  0  0
   -2.0979    0.3780    1.4330 H   0  0  0  0  0  0
   -1.0196    1.5093   -1.1857 H   0  0  0  0  0  0
   -0.8175    2.1489    0.4285 H   0  0  0  0  0  0
    1.6224   -2.6972    0.4800 H   0  0  0  0  0  0
    3.8251    0.7436   -0.2569 H   0  0  0  0  0  0
  1  2  1  0  0  0
  2  3  2  0  0  0
  2 11  1  0  0  0
  3  4  1  0  0  0
  3  8  1  0  0  0
  4  5  1  0  0  0
  4  9  2  0  0  0
  5  6  1  0  0  0
  6 13  1  0  0  0
  6  7  1  0  0  0
  6 12  1  0  0  0
  7 15  1  0  0  0
  7  8  1  0  0  0
  7 14  1  0  0  0
  8 17  1  0  0  0
  8 16  1  0  0  0
  9 18  1  0  0  0
  9 10  1  0  0  0
 10 11  2  0  0  0
 11 19  1  0  0  0
M  END
> <r_mmod_Potential_Energy-S-OPLS>
52.4875030517578

> <b_mmod_Minimization_Converged-S-OPLS>
1

> <r_mmod_RMS_Derivative-S-OPLS>
0.000845958769787103

> <i_mmod_Times_Found-S-OPLS>
399

> <r_mmod_Relative_Potential_Energy-S-OPLS>
0

> <i_mmod_Conformation-S-OPLS>
1

> <i_mmod_Serial_Number-S-OPLS>
1

$$$$
