%nprocs=16
%mem=16GB
%chk=pyrd4_conf-5.chk
# B3LYP/6-31G(d,p) symmetry=loose empiricaldispersion=GD3BJ int=(grid=ultrafine) opt freq=noraman

 pyrd4.xyz

0 1
O    1.02810    1.43580    5.93150
C    1.15570    1.13010    4.74630
N    2.33260    1.04320    4.09610
C    3.62710    1.22640    4.59680
N    3.89920    1.10140    5.92450
C    5.17790    1.26650    6.34070
C    6.22610    1.54700    5.46370
C    5.95050    1.66370    4.09830
C    7.08200    1.96890    3.12270
C    7.14150    1.37580    1.73060
C    6.89600    2.85950    1.91220
C    4.63010    1.49670    3.66100
C    -0.06530    0.87620    3.88920
C    -0.02990    -0.00990    2.79920
C    -1.17030    -0.22300    2.02860
C    -2.36260    0.43570    2.33310
B    -3.65650    0.19020    1.45450
O    -3.70500    -0.65060    0.36520
C    -5.06860    -0.81280    0.02030
C    -5.12830    -1.00050    -1.50910
C    -5.53080    -2.10310    0.74260
C    -5.69160    0.52740    0.55760
C    -5.53270    1.75880    -0.36890
C    -7.14250    0.42120    1.06910
O    -4.87420    0.79020    1.68320
C    -2.40670    1.30620    3.42320
C    -1.27000    1.52190    4.19750
H    2.25790    0.92860    3.10400
H    5.34660    1.16870    7.40360
H    7.23020    1.67100    5.84050
H    8.04860    2.06840    3.62100
H    6.32780    0.72880    1.40010
H    8.10790    1.03550    1.35560
H    7.68890    3.56750    1.66610
H    5.90670    3.27400    1.71340
H    4.39570    1.58470    2.61210
H    0.86670    -0.55860    2.54750
H    -1.13600    -0.90930    1.19390
H    -4.62890    -0.19100    -2.04160
H    -6.15980    -1.04230    -1.85800
H    -4.63590    -1.92430    -1.81460
H    -6.56770    -2.33980    0.50530
H    -5.45210    -2.01140    1.82670
H    -4.92490    -2.96190    0.45140
H    -6.16180    1.67180    -1.25430
H    -4.50260    1.88310    -0.70500
H    -5.81400    2.68040    0.14210
H    -7.82030    0.13030    0.26690
H    -7.49160    1.37280    1.47140
H    -7.24210    -0.31010    1.87130
H    -3.32840    1.81330    3.67210
H    -1.32840    2.19560    5.04310

--Link1--
%nprocs=16
%mem=16GB
%chk=pyrd4_conf-5.chk
# M062X/def2tzvp int=(grid=ultrafine) pop=nbo7 polar prop=efg volume guess=read geom=check

 pyrd4.xyz

0 1

--Link1--
%nprocs=16
%mem=16GB
%chk=pyrd4_conf-5.chk
# M062X/def2tzvp int=(grid=ultrafine) nmr=giao guess=read geom=check

 pyrd4.xyz

0 1

