pyrd13.xyz
                    3D
 Schrodinger Suite 2022-4.
 22 23  0  0  1  0            999 V2000
    4.8214   -0.0038   -0.2085 O   0  0  0  0  0  0
    3.8061    0.6955   -0.1705 C   0  0  0  0  0  0
    2.4191    0.1631   -0.1112 C   0  0  0  0  0  0
    2.1680   -1.2137   -0.0879 C   0  0  0  0  0  0
    0.8452   -1.6559   -0.0376 C   0  0  0  0  0  0
   -0.2076   -0.7335   -0.0118 C   0  0  0  0  0  0
   -1.6659   -1.1723   -0.0111 C   0  0  0  0  0  0
   -2.5651   -0.0535    0.5422 C   0  0  0  0  0  0
   -2.2408    1.3097   -0.1003 C   0  0  0  0  0  0
   -0.8286    1.6381    0.1084 N   0  0  0  0  0  0
    0.1393    0.6317   -0.0224 C   0  0  0  0  0  0
    1.4158    1.0791   -0.0759 N   0  0  0  0  0  0
    3.8730    1.7838   -0.1787 H   0  0  0  0  0  0
    2.9829   -1.9250   -0.1136 H   0  0  0  0  0  0
    0.6394   -2.7165   -0.0316 H   0  0  0  0  0  0
   -1.9573   -1.3933   -1.0391 H   0  0  0  0  0  0
   -1.7987   -2.0929    0.5593 H   0  0  0  0  0  0
   -2.4313    0.0227    1.6231 H   0  0  0  0  0  0
   -3.6161   -0.2999    0.3885 H   0  0  0  0  0  0
   -2.8880    2.1067    0.2700 H   0  0  0  0  0  0
   -2.3734    1.2509   -1.1828 H   0  0  0  0  0  0
   -0.5373    2.5790   -0.1087 H   0  0  0  0  0  0
  1  2  2  0  0  0
  2 13  1  0  0  0
  2  3  1  0  0  0
  3 12  1  0  0  0
  3  4  2  0  0  0
  4  5  1  0  0  0
  4 14  1  0  0  0
  5  6  2  0  0  0
  5 15  1  0  0  0
  6 11  1  0  0  0
  6  7  1  0  0  0
  7  8  1  0  0  0
  7 17  1  0  0  0
  7 16  1  0  0  0
  8 18  1  0  0  0
  8  9  1  0  0  0
  8 19  1  0  0  0
  9 10  1  0  0  0
  9 20  1  0  0  0
  9 21  1  0  0  0
 10 22  1  0  0  0
 10 11  1  0  0  0
 11 12  2  0  0  0
M  END
> <r_mmod_Potential_Energy-S-OPLS>
57.6636428833008

> <b_mmod_Minimization_Converged-S-OPLS>
1

> <r_mmod_RMS_Derivative-S-OPLS>
0.000418332987464964

> <i_mmod_Times_Found-S-OPLS>
455

> <r_mmod_Relative_Potential_Energy-S-OPLS>
0

> <i_mmod_Conformation-S-OPLS>
1

> <i_mmod_Serial_Number-S-OPLS>
1

$$$$
