pyrd10.xyz
                    3D
 Schrodinger Suite 2022-4.
 20 20  0  0  1  0            999 V2000
    4.6342   -1.0884    1.8751 Br  0  0  0  0  0  0
    3.6762   -2.4054    0.7277 C   0  0  0  0  0  0
    2.8941   -1.6814   -0.3848 C   0  0  0  0  0  0
    1.7836   -0.7336    0.1165 C   0  0  0  0  0  0
    0.6941   -1.4435    0.9063 C   0  0  0  0  0  0
    0.7077   -1.4455    2.3057 C   0  0  0  0  0  0
   -0.2370   -2.0718    3.0529 N   0  0  0  0  0  0
   -1.2365   -2.7177    2.4007 C   0  0  0  0  0  0
   -1.3265   -2.7632    1.0079 C   0  0  0  0  0  0
   -0.3452   -2.1158    0.2540 C   0  0  0  0  0  0
    4.4247   -3.0796    0.3097 H   0  0  0  0  0  0
    3.0217   -2.9998    1.3674 H   0  0  0  0  0  0
    2.4530   -2.4256   -1.0495 H   0  0  0  0  0  0
    3.5974   -1.1162   -0.9983 H   0  0  0  0  0  0
    2.2107    0.0682    0.7218 H   0  0  0  0  0  0
    1.3205   -0.2241   -0.7303 H   0  0  0  0  0  0
    1.4936   -0.9448    2.8540 H   0  0  0  0  0  0
   -1.9750   -3.2044    3.0218 H   0  0  0  0  0  0
   -2.1378   -3.2866    0.5236 H   0  0  0  0  0  0
   -0.3931   -2.1372   -0.8252 H   0  0  0  0  0  0
  1  2  1  0  0  0
  2  3  1  0  0  0
  2 11  1  0  0  0
  2 12  1  0  0  0
  3 14  1  0  0  0
  3  4  1  0  0  0
  3 13  1  0  0  0
  4 15  1  0  0  0
  4  5  1  0  0  0
  4 16  1  0  0  0
  5  6  1  0  0  0
  5 10  2  0  0  0
  6 17  1  0  0  0
  6  7  2  0  0  0
  7  8  1  0  0  0
  8 18  1  0  0  0
  8  9  2  0  0  0
  9 10  1  0  0  0
  9 19  1  0  0  0
 10 20  1  0  0  0
M  END
> <r_mmod_Potential_Energy-S-OPLS>
39.8918647766113

> <b_mmod_Minimization_Converged-S-OPLS>
1

> <r_mmod_RMS_Derivative-S-OPLS>
0.000475593958981335

> <i_mmod_Times_Found-S-OPLS>
25

> <r_mmod_Relative_Potential_Energy-S-OPLS>
0

> <i_mmod_Conformation-S-OPLS>
1

> <i_mmod_Serial_Number-S-OPLS>
1

$$$$
pyrd10.xyz
                    3D
 Schrodinger Suite 2022-4.
 20 20  0  0  1  0            999 V2000
    4.1762   -2.6225   -0.6525 Br  0  0  0  0  0  0
    3.7826   -2.0922    1.2272 C   0  0  0  0  0  0
    3.2059   -0.6645    1.2755 C   0  0  0  0  0  0
    1.8623   -0.4801    0.5378 C   0  0  0  0  0  0
    0.7371   -1.3329    1.1051 C   0  0  0  0  0  0
   -0.0019   -0.9055    2.2136 C   0  0  0  0  0  0
   -1.0092   -1.6357    2.7569 N   0  0  0  0  0  0
   -1.3044   -2.8317    2.1872 C   0  0  0  0  0  0
   -0.6187   -3.3323    1.0785 C   0  0  0  0  0  0
    0.4151   -2.5687    0.5327 C   0  0  0  0  0  0
    4.7158   -2.1598    1.7877 H   0  0  0  0  0  0
    3.0940   -2.8255    1.6498 H   0  0  0  0  0  0
    3.0817   -0.3688    2.3184 H   0  0  0  0  0  0
    3.9407    0.0254    0.8579 H   0  0  0  0  0  0
    1.9775   -0.6909   -0.5270 H   0  0  0  0  0  0
    1.5589    0.5673    0.5808 H   0  0  0  0  0  0
    0.2071    0.0411    2.6902 H   0  0  0  0  0  0
   -2.1116   -3.3903    2.6394 H   0  0  0  0  0  0
   -0.8809   -4.2888    0.6506 H   0  0  0  0  0  0
    0.9641   -2.9356   -0.3236 H   0  0  0  0  0  0
  1  2  1  0  0  0
  2  3  1  0  0  0
  2 11  1  0  0  0
  2 12  1  0  0  0
  3 14  1  0  0  0
  3  4  1  0  0  0
  3 13  1  0  0  0
  4 15  1  0  0  0
  4  5  1  0  0  0
  4 16  1  0  0  0
  5  6  1  0  0  0
  5 10  2  0  0  0
  6 17  1  0  0  0
  6  7  2  0  0  0
  7  8  1  0  0  0
  8 18  1  0  0  0
  8  9  2  0  0  0
  9 10  1  0  0  0
  9 19  1  0  0  0
 10 20  1  0  0  0
M  END
> <r_mmod_Potential_Energy-S-OPLS>
40.0806045532227

> <b_mmod_Minimization_Converged-S-OPLS>
1

> <r_mmod_RMS_Derivative-S-OPLS>
0.000774948857724667

> <i_mmod_Times_Found-S-OPLS>
31

> <r_mmod_Relative_Potential_Energy-S-OPLS>
0.188739776611328

> <i_mmod_Conformation-S-OPLS>
2

> <i_mmod_Serial_Number-S-OPLS>
1

$$$$
pyrd10.xyz
                    3D
 Schrodinger Suite 2022-4.
 20 20  0  0  1  0            999 V2000
    5.0746   -0.0929    1.3464 Br  0  0  0  0  0  0
    3.6215   -1.4518    1.3367 C   0  0  0  0  0  0
    2.9649   -1.4771   -0.0530 C   0  0  0  0  0  0
    1.8555   -2.5382   -0.2003 C   0  0  0  0  0  0
    0.6854   -2.3287    0.7502 C   0  0  0  0  0  0
    0.4875   -3.1729    1.8489 C   0  0  0  0  0  0
   -0.5369   -3.0178    2.7257 N   0  0  0  0  0  0
   -1.4038   -1.9955    2.5145 C   0  0  0  0  0  0
   -1.2821   -1.1091    1.4425 C   0  0  0  0  0  0
   -0.2219   -1.2822    0.5503 C   0  0  0  0  0  0
    4.0646   -2.4140    1.5964 H   0  0  0  0  0  0
    2.9093   -1.1810    2.1182 H   0  0  0  0  0  0
    2.5611   -0.4883   -0.2766 H   0  0  0  0  0  0
    3.7344   -1.6627   -0.8040 H   0  0  0  0  0  0
    2.2718   -3.5379   -0.0628 H   0  0  0  0  0  0
    1.4698   -2.5297   -1.2214 H   0  0  0  0  0  0
    1.1572   -3.9968    2.0486 H   0  0  0  0  0  0
   -2.2095   -1.8968    3.2282 H   0  0  0  0  0  0
   -1.9918   -0.3063    1.3058 H   0  0  0  0  0  0
   -0.1063   -0.6074   -0.2857 H   0  0  0  0  0  0
  1  2  1  0  0  0
  2  3  1  0  0  0
  2 11  1  0  0  0
  2 12  1  0  0  0
  3 14  1  0  0  0
  3  4  1  0  0  0
  3 13  1  0  0  0
  4 15  1  0  0  0
  4  5  1  0  0  0
  4 16  1  0  0  0
  5  6  1  0  0  0
  5 10  2  0  0  0
  6 17  1  0  0  0
  6  7  2  0  0  0
  7  8  1  0  0  0
  8 18  1  0  0  0
  8  9  2  0  0  0
  9 10  1  0  0  0
  9 19  1  0  0  0
 10 20  1  0  0  0
M  END
> <r_mmod_Potential_Energy-S-OPLS>
44.3447036743164

> <b_mmod_Minimization_Converged-S-OPLS>
1

> <r_mmod_RMS_Derivative-S-OPLS>
0.000926267995964736

> <i_mmod_Times_Found-S-OPLS>
32

> <r_mmod_Relative_Potential_Energy-S-OPLS>
4.45283889770508

> <i_mmod_Conformation-S-OPLS>
3

> <i_mmod_Serial_Number-S-OPLS>
1

$$$$
pyrd10.xyz
                    3D
 Schrodinger Suite 2022-4.
 20 20  0  0  1  0            999 V2000
    4.7753   -0.7446   -0.8430 Br  0  0  0  0  0  0
    4.6022   -1.7773    0.8514 C   0  0  0  0  0  0
    3.1532   -2.2559    1.0419 C   0  0  0  0  0  0
    2.1406   -1.1104    1.2350 C   0  0  0  0  0  0
    0.7253   -1.6226    1.4464 C   0  0  0  0  0  0
    0.2025   -1.7897    2.7336 C   0  0  0  0  0  0
   -1.0534   -2.2488    2.9677 N   0  0  0  0  0  0
   -1.8271   -2.5548    1.8955 C   0  0  0  0  0  0
   -1.3844   -2.4174    0.5783 C   0  0  0  0  0  0
   -0.0893   -1.9446    0.3553 C   0  0  0  0  0  0
    5.2912   -2.6209    0.7898 H   0  0  0  0  0  0
    4.9326   -1.1392    1.6723 H   0  0  0  0  0  0
    2.8620   -2.8677    0.1861 H   0  0  0  0  0  0
    3.1107   -2.9167    1.9094 H   0  0  0  0  0  0
    2.1438   -0.4427    0.3714 H   0  0  0  0  0  0
    2.4287   -0.4847    2.0817 H   0  0  0  0  0  0
    0.7911   -1.5562    3.6088 H   0  0  0  0  0  0
   -2.8223   -2.9165    2.1120 H   0  0  0  0  0  0
   -2.0284   -2.6705   -0.2511 H   0  0  0  0  0  0
    0.2772   -1.8302   -0.6550 H   0  0  0  0  0  0
  1  2  1  0  0  0
  2  3  1  0  0  0
  2 11  1  0  0  0
  2 12  1  0  0  0
  3 14  1  0  0  0
  3  4  1  0  0  0
  3 13  1  0  0  0
  4 15  1  0  0  0
  4  5  1  0  0  0
  4 16  1  0  0  0
  5  6  1  0  0  0
  5 10  2  0  0  0
  6 17  1  0  0  0
  6  7  2  0  0  0
  7  8  1  0  0  0
  8 18  1  0  0  0
  8  9  2  0  0  0
  9 10  1  0  0  0
  9 19  1  0  0  0
 10 20  1  0  0  0
M  END
> <r_mmod_Potential_Energy-S-OPLS>
44.4168891906738

> <b_mmod_Minimization_Converged-S-OPLS>
1

> <r_mmod_RMS_Derivative-S-OPLS>
0.000986101338639855

> <i_mmod_Times_Found-S-OPLS>
35

> <r_mmod_Relative_Potential_Energy-S-OPLS>
4.5250244140625

> <i_mmod_Conformation-S-OPLS>
4

> <i_mmod_Serial_Number-S-OPLS>
1

$$$$
pyrd10.xyz
                    3D
 Schrodinger Suite 2022-4.
 20 20  0  0  1  0            999 V2000
    5.4084   -1.2224    1.3013 Br  0  0  0  0  0  0
    4.1914   -1.0672   -0.2679 C   0  0  0  0  0  0
    2.7252   -1.0144    0.1932 C   0  0  0  0  0  0
    2.2419   -2.3076    0.8776 C   0  0  0  0  0  0
    0.7814   -2.2289    1.2906 C   0  0  0  0  0  0
    0.4190   -1.7739    2.5632 C   0  0  0  0  0  0
   -0.8712   -1.6813    2.9756 N   0  0  0  0  0  0
   -1.8438   -2.0509    2.1044 C   0  0  0  0  0  0
   -1.5700   -2.5156    0.8163 C   0  0  0  0  0  0
   -0.2374   -2.6039    0.4077 C   0  0  0  0  0  0
    4.4686   -0.1594   -0.8056 H   0  0  0  0  0  0
    4.3811   -1.9145   -0.9284 H   0  0  0  0  0  0
    2.0908   -0.8111   -0.6712 H   0  0  0  0  0  0
    2.5911   -0.1667    0.8678 H   0  0  0  0  0  0
    2.8471   -2.5245    1.7598 H   0  0  0  0  0  0
    2.3800   -3.1662    0.2182 H   0  0  0  0  0  0
    1.1692   -1.4705    3.2795 H   0  0  0  0  0  0
   -2.8607   -1.9675    2.4608 H   0  0  0  0  0  0
   -2.3709   -2.8012    0.1502 H   0  0  0  0  0  0
   -0.0011   -2.9601   -0.5846 H   0  0  0  0  0  0
  1  2  1  0  0  0
  2  3  1  0  0  0
  2 11  1  0  0  0
  2 12  1  0  0  0
  3 14  1  0  0  0
  3  4  1  0  0  0
  3 13  1  0  0  0
  4 15  1  0  0  0
  4  5  1  0  0  0
  4 16  1  0  0  0
  5  6  1  0  0  0
  5 10  2  0  0  0
  6 17  1  0  0  0
  6  7  2  0  0  0
  7  8  1  0  0  0
  8 18  1  0  0  0
  8  9  2  0  0  0
  9 10  1  0  0  0
  9 19  1  0  0  0
 10 20  1  0  0  0
M  END
> <r_mmod_Potential_Energy-S-OPLS>
44.6922378540039

> <b_mmod_Minimization_Converged-S-OPLS>
1

> <r_mmod_RMS_Derivative-S-OPLS>
0.000670056266244501

> <i_mmod_Times_Found-S-OPLS>
29

> <r_mmod_Relative_Potential_Energy-S-OPLS>
4.80037307739258

> <i_mmod_Conformation-S-OPLS>
5

> <i_mmod_Serial_Number-S-OPLS>
1

$$$$
pyrd10.xyz
                    3D
 Schrodinger Suite 2022-4.
 20 20  0  0  1  0            999 V2000
    5.1435   -0.2379    1.4206 Br  0  0  0  0  0  0
    3.3136   -0.6425    0.7531 C   0  0  0  0  0  0
    3.2182   -2.1396    0.4184 C   0  0  0  0  0  0
    1.8612   -2.5628   -0.1795 C   0  0  0  0  0  0
    0.6867   -2.3350    0.7609 C   0  0  0  0  0  0
    0.4310   -3.2185    1.8154 C   0  0  0  0  0  0
   -0.5997   -3.0555    2.6835 N   0  0  0  0  0  0
   -1.4130   -1.9834    2.5089 C   0  0  0  0  0  0
   -1.2309   -1.0543    1.4825 C   0  0  0  0  0  0
   -0.1656   -1.2367    0.5981 C   0  0  0  0  0  0
    2.6058   -0.3549    1.5326 H   0  0  0  0  0  0
    3.1332   -0.0166   -0.1216 H   0  0  0  0  0  0
    4.0101   -2.3942   -0.2879 H   0  0  0  0  0  0
    3.4214   -2.7219    1.3188 H   0  0  0  0  0  0
    1.8895   -3.6220   -0.4419 H   0  0  0  0  0  0
    1.6841   -2.0440   -1.1235 H   0  0  0  0  0  0
    1.0603   -4.0804    1.9844 H   0  0  0  0  0  0
   -2.2248   -1.8799    3.2149 H   0  0  0  0  0  0
   -1.8998   -0.2130    1.3742 H   0  0  0  0  0  0
   -0.0066   -0.5296   -0.2033 H   0  0  0  0  0  0
  1  2  1  0  0  0
  2  3  1  0  0  0
  2 11  1  0  0  0
  2 12  1  0  0  0
  3 14  1  0  0  0
  3  4  1  0  0  0
  3 13  1  0  0  0
  4 15  1  0  0  0
  4  5  1  0  0  0
  4 16  1  0  0  0
  5  6  1  0  0  0
  5 10  2  0  0  0
  6 17  1  0  0  0
  6  7  2  0  0  0
  7  8  1  0  0  0
  8 18  1  0  0  0
  8  9  2  0  0  0
  9 10  1  0  0  0
  9 19  1  0  0  0
 10 20  1  0  0  0
M  END
> <r_mmod_Potential_Energy-S-OPLS>
45.1602554321289

> <b_mmod_Minimization_Converged-S-OPLS>
1

> <r_mmod_RMS_Derivative-S-OPLS>
0.000627396104391664

> <i_mmod_Times_Found-S-OPLS>
25

> <r_mmod_Relative_Potential_Energy-S-OPLS>
5.26839065551758

> <i_mmod_Conformation-S-OPLS>
6

> <i_mmod_Serial_Number-S-OPLS>
1

$$$$
pyrd10.xyz
                    3D
 Schrodinger Suite 2022-4.
 20 20  0  0  1  0            999 V2000
    5.8807   -2.1290    0.6795 Br  0  0  0  0  0  0
    4.2946   -1.0124    0.2381 C   0  0  0  0  0  0
    3.0364   -1.6693    0.8230 C   0  0  0  0  0  0
    1.7527   -0.8738    0.5250 C   0  0  0  0  0  0
    0.5144   -1.5346    1.1085 C   0  0  0  0  0  0
    0.0137   -1.1510    2.3577 C   0  0  0  0  0  0
   -1.0866   -1.7148    2.9182 N   0  0  0  0  0  0
   -1.7201   -2.6948    2.2256 C   0  0  0  0  0  0
   -1.2872   -3.1387    0.9745 C   0  0  0  0  0  0
   -0.1537   -2.5478    0.4119 C   0  0  0  0  0  0
    4.4649   -0.0177    0.6525 H   0  0  0  0  0  0
    4.2423   -0.9275   -0.8483 H   0  0  0  0  0  0
    2.9416   -2.6810    0.4245 H   0  0  0  0  0  0
    3.1566   -1.7789    1.9024 H   0  0  0  0  0  0
    1.6145   -0.7589   -0.5518 H   0  0  0  0  0  0
    1.8347    0.1421    0.9161 H   0  0  0  0  0  0
    0.4952   -0.3773    2.9380 H   0  0  0  0  0  0
   -2.5923   -3.1255    2.6968 H   0  0  0  0  0  0
   -1.8163   -3.9228    0.4528 H   0  0  0  0  0  0
    0.2012   -2.8769   -0.5541 H   0  0  0  0  0  0
  1  2  1  0  0  0
  2  3  1  0  0  0
  2 11  1  0  0  0
  2 12  1  0  0  0
  3 14  1  0  0  0
  3  4  1  0  0  0
  3 13  1  0  0  0
  4 15  1  0  0  0
  4  5  1  0  0  0
  4 16  1  0  0  0
  5  6  1  0  0  0
  5 10  2  0  0  0
  6 17  1  0  0  0
  6  7  2  0  0  0
  7  8  1  0  0  0
  8 18  1  0  0  0
  8  9  2  0  0  0
  9 10  1  0  0  0
  9 19  1  0  0  0
 10 20  1  0  0  0
M  END
> <r_mmod_Potential_Energy-S-OPLS>
48.1663017272949

> <b_mmod_Minimization_Converged-S-OPLS>
1

> <r_mmod_RMS_Derivative-S-OPLS>
0.000664911814965308

> <i_mmod_Times_Found-S-OPLS>
30

> <r_mmod_Relative_Potential_Energy-S-OPLS>
8.27443695068359

> <i_mmod_Conformation-S-OPLS>
7

> <i_mmod_Serial_Number-S-OPLS>
1

$$$$
pyrd10.xyz
                    3D
 Schrodinger Suite 2022-4.
 20 20  0  0  1  0            999 V2000
    5.0840   -0.1287    0.4685 Br  0  0  0  0  0  0
    4.4492   -1.9524   -0.0196 C   0  0  0  0  0  0
    2.9124   -2.0143    0.0137 C   0  0  0  0  0  0
    2.3139   -1.8030    1.4226 C   0  0  0  0  0  0
    0.7983   -1.9598    1.5425 C   0  0  0  0  0  0
    0.2145   -1.9818    2.8149 C   0  0  0  0  0  0
   -1.1203   -2.1145    3.0223 N   0  0  0  0  0  0
   -1.9221   -2.2270    1.9345 C   0  0  0  0  0  0
   -1.4307   -2.2105    0.6286 C   0  0  0  0  0  0
   -0.0545   -2.0742    0.4339 C   0  0  0  0  0  0
    4.8317   -2.1733   -1.0171 H   0  0  0  0  0  0
    4.9013   -2.6643    0.6726 H   0  0  0  0  0  0
    2.5155   -1.2683   -0.6767 H   0  0  0  0  0  0
    2.5974   -2.9880   -0.3651 H   0  0  0  0  0  0
    2.5722   -0.8072    1.7875 H   0  0  0  0  0  0
    2.7765   -2.5105    2.1133 H   0  0  0  0  0  0
    0.8207   -1.8904    3.7046 H   0  0  0  0  0  0
   -2.9802   -2.3295    2.1294 H   0  0  0  0  0  0
   -2.1003   -2.2989   -0.2143 H   0  0  0  0  0  0
    0.3283   -2.0558   -0.5749 H   0  0  0  0  0  0
  1  2  1  0  0  0
  2  3  1  0  0  0
  2 11  1  0  0  0
  2 12  1  0  0  0
  3 14  1  0  0  0
  3  4  1  0  0  0
  3 13  1  0  0  0
  4 15  1  0  0  0
  4  5  1  0  0  0
  4 16  1  0  0  0
  5  6  1  0  0  0
  5 10  2  0  0  0
  6 17  1  0  0  0
  6  7  2  0  0  0
  7  8  1  0  0  0
  8 18  1  0  0  0
  8  9  2  0  0  0
  9 10  1  0  0  0
  9 19  1  0  0  0
 10 20  1  0  0  0
M  END
> <r_mmod_Potential_Energy-S-OPLS>
49.1201400756836

> <b_mmod_Minimization_Converged-S-OPLS>
1

> <r_mmod_RMS_Derivative-S-OPLS>
0.000843229005113244

> <i_mmod_Times_Found-S-OPLS>
9

> <r_mmod_Relative_Potential_Energy-S-OPLS>
9.22827529907227

> <i_mmod_Conformation-S-OPLS>
8

> <i_mmod_Serial_Number-S-OPLS>
1

$$$$
pyrd10.xyz
                    3D
 Schrodinger Suite 2022-4.
 20 20  0  0  1  0            999 V2000
    5.3765   -2.2845    0.2937 Br  0  0  0  0  0  0
    4.3515   -0.5858    0.4698 C   0  0  0  0  0  0
    3.0245   -0.8313    1.2084 C   0  0  0  0  0  0
    2.0478   -1.7496    0.4395 C   0  0  0  0  0  0
    0.6746   -1.9595    1.0767 C   0  0  0  0  0  0
    0.3363   -1.4866    2.3537 C   0  0  0  0  0  0
   -0.8839   -1.6757    2.9177 N   0  0  0  0  0  0
   -1.8138   -2.3593    2.2055 C   0  0  0  0  0  0
   -1.5645   -2.8693    0.9309 C   0  0  0  0  0  0
   -0.3042   -2.6645    0.3660 C   0  0  0  0  0  0
    4.9818    0.1187    1.0143 H   0  0  0  0  0  0
    4.1926   -0.1815   -0.5310 H   0  0  0  0  0  0
    3.2412   -1.2553    2.1904 H   0  0  0  0  0  0
    2.5448    0.1330    1.3842 H   0  0  0  0  0  0
    2.5005   -2.7332    0.3019 H   0  0  0  0  0  0
    1.8901   -1.3417   -0.5606 H   0  0  0  0  0  0
    1.0399   -0.9428    2.9650 H   0  0  0  0  0  0
   -2.7750   -2.4955    2.6806 H   0  0  0  0  0  0
   -2.3281   -3.4117    0.3929 H   0  0  0  0  0  0
   -0.0905   -3.0539   -0.6192 H   0  0  0  0  0  0
  1  2  1  0  0  0
  2  3  1  0  0  0
  2 11  1  0  0  0
  2 12  1  0  0  0
  3 14  1  0  0  0
  3  4  1  0  0  0
  3 13  1  0  0  0
  4 15  1  0  0  0
  4  5  1  0  0  0
  4 16  1  0  0  0
  5  6  1  0  0  0
  5 10  2  0  0  0
  6 17  1  0  0  0
  6  7  2  0  0  0
  7  8  1  0  0  0
  8 18  1  0  0  0
  8  9  2  0  0  0
  9 10  1  0  0  0
  9 19  1  0  0  0
 10 20  1  0  0  0
M  END
> <r_mmod_Potential_Energy-S-OPLS>
50.0918426513672

> <b_mmod_Minimization_Converged-S-OPLS>
1

> <r_mmod_RMS_Derivative-S-OPLS>
0.000818089174572378

> <i_mmod_Times_Found-S-OPLS>
19

> <r_mmod_Relative_Potential_Energy-S-OPLS>
10.1999778747559

> <i_mmod_Conformation-S-OPLS>
9

> <i_mmod_Serial_Number-S-OPLS>
1

$$$$
pyrd10.xyz
                    3D
 Schrodinger Suite 2022-4.
 20 20  0  0  1  0            999 V2000
    5.5838   -1.8398   -0.7895 Br  0  0  0  0  0  0
    4.4641   -1.0871    0.6725 C   0  0  0  0  0  0
    3.0483   -1.6724    0.5735 C   0  0  0  0  0  0
    2.1034   -1.1430    1.6732 C   0  0  0  0  0  0
    0.6711   -1.6758    1.6484 C   0  0  0  0  0  0
   -0.2357   -1.2346    2.6197 C   0  0  0  0  0  0
   -1.5265   -1.6494    2.6801 N   0  0  0  0  0  0
   -1.9507   -2.5373    1.7472 C   0  0  0  0  0  0
   -1.1191   -3.0323    0.7420 C   0  0  0  0  0  0
    0.2062   -2.5946    0.6948 C   0  0  0  0  0  0
    4.9440   -1.3384    1.6196 H   0  0  0  0  0  0
    4.4650   -0.0014    0.5644 H   0  0  0  0  0  0
    2.6381   -1.4357   -0.4099 H   0  0  0  0  0  0
    3.1125   -2.7602    0.6354 H   0  0  0  0  0  0
    2.0519   -0.0544    1.6101 H   0  0  0  0  0  0
    2.5253   -1.3756    2.6528 H   0  0  0  0  0  0
    0.0647   -0.5276    3.3795 H   0  0  0  0  0  0
   -2.9827   -2.8503    1.8192 H   0  0  0  0  0  0
   -1.4917   -3.7392    0.0151 H   0  0  0  0  0  0
    0.8514   -2.9763   -0.0821 H   0  0  0  0  0  0
  1  2  1  0  0  0
  2  3  1  0  0  0
  2 11  1  0  0  0
  2 12  1  0  0  0
  3 14  1  0  0  0
  3  4  1  0  0  0
  3 13  1  0  0  0
  4 15  1  0  0  0
  4  5  1  0  0  0
  4 16  1  0  0  0
  5  6  1  0  0  0
  5 10  2  0  0  0
  6 17  1  0  0  0
  6  7  2  0  0  0
  7  8  1  0  0  0
  8 18  1  0  0  0
  8  9  2  0  0  0
  9 10  1  0  0  0
  9 19  1  0  0  0
 10 20  1  0  0  0
M  END
> <r_mmod_Potential_Energy-S-OPLS>
51.1197853088379

> <b_mmod_Minimization_Converged-S-OPLS>
1

> <r_mmod_RMS_Derivative-S-OPLS>
0.000999943935312331

> <i_mmod_Times_Found-S-OPLS>
7

> <r_mmod_Relative_Potential_Energy-S-OPLS>
11.2279205322266

> <i_mmod_Conformation-S-OPLS>
10

> <i_mmod_Serial_Number-S-OPLS>
1

$$$$
pyrd10.xyz
                    3D
 Schrodinger Suite 2022-4.
 20 20  0  0  1  0            999 V2000
    5.9262   -0.9854    1.2563 Br  0  0  0  0  0  0
    4.3471   -1.2910    0.0856 C   0  0  0  0  0  0
    3.1036   -1.4970    0.9621 C   0  0  0  0  0  0
    1.8235   -1.7424    0.1352 C   0  0  0  0  0  0
    0.5362   -1.9578    0.9301 C   0  0  0  0  0  0
    0.4832   -1.9403    2.3324 C   0  0  0  0  0  0
   -0.6620   -2.1320    3.0354 N   0  0  0  0  0  0
   -1.8057   -2.3503    2.3402 C   0  0  0  0  0  0
   -1.8472   -2.3846    0.9459 C   0  0  0  0  0  0
   -0.6599   -2.1855    0.2388 C   0  0  0  0  0  0
    4.2465   -0.4227   -0.5673 H   0  0  0  0  0  0
    4.5586   -2.1639   -0.5337 H   0  0  0  0  0  0
    3.2800   -2.3431    1.6287 H   0  0  0  0  0  0
    2.9708   -0.6180    1.5955 H   0  0  0  0  0  0
    1.9688   -2.6175   -0.5010 H   0  0  0  0  0  0
    1.6602   -0.8957   -0.5342 H   0  0  0  0  0  0
    1.3628   -1.7710    2.9348 H   0  0  0  0  0  0
   -2.7008   -2.4994    2.9272 H   0  0  0  0  0  0
   -2.7767   -2.5612    0.4248 H   0  0  0  0  0  0
   -0.6723   -2.2085   -0.8415 H   0  0  0  0  0  0
  1  2  1  0  0  0
  2  3  1  0  0  0
  2 11  1  0  0  0
  2 12  1  0  0  0
  3 14  1  0  0  0
  3  4  1  0  0  0
  3 13  1  0  0  0
  4 15  1  0  0  0
  4  5  1  0  0  0
  4 16  1  0  0  0
  5  6  1  0  0  0
  5 10  2  0  0  0
  6 17  1  0  0  0
  6  7  2  0  0  0
  7  8  1  0  0  0
  8 18  1  0  0  0
  8  9  2  0  0  0
  9 10  1  0  0  0
  9 19  1  0  0  0
 10 20  1  0  0  0
M  END
> <r_mmod_Potential_Energy-S-OPLS>
52.4454917907715

> <b_mmod_Minimization_Converged-S-OPLS>
1

> <r_mmod_RMS_Derivative-S-OPLS>
0.000705131620634347

> <i_mmod_Times_Found-S-OPLS>
10

> <r_mmod_Relative_Potential_Energy-S-OPLS>
12.5536270141602

> <i_mmod_Conformation-S-OPLS>
11

> <i_mmod_Serial_Number-S-OPLS>
1

$$$$
pyrd10.xyz
                    3D
 Schrodinger Suite 2022-4.
 20 20  0  0  1  0            999 V2000
    3.1888   -0.4209    2.2070 Br  0  0  0  0  0  0
    3.9688   -1.4462    0.6879 C   0  0  0  0  0  0
    2.9790   -1.5431   -0.4905 C   0  0  0  0  0  0
    1.8766   -2.6177   -0.3499 C   0  0  0  0  0  0
    0.8298   -2.3224    0.7139 C   0  0  0  0  0  0
    0.7575   -3.0824    1.8872 C   0  0  0  0  0  0
   -0.1638   -2.8591    2.8587 N   0  0  0  0  0  0
   -1.0481   -1.8469    2.6729 C   0  0  0  0  0  0
   -1.0481   -1.0407    1.5329 C   0  0  0  0  0  0
   -0.0956   -1.2868    0.5418 C   0  0  0  0  0  0
    4.8757   -0.9183    0.3899 H   0  0  0  0  0  0
    4.2673   -2.4281    1.0571 H   0  0  0  0  0  0
    2.5409   -0.5631   -0.6867 H   0  0  0  0  0  0
    3.5536   -1.7870   -1.3851 H   0  0  0  0  0  0
    2.3264   -3.5953   -0.1680 H   0  0  0  0  0  0
    1.3508   -2.7230   -1.3005 H   0  0  0  0  0  0
    1.4517   -3.8882    2.0738 H   0  0  0  0  0  0
   -1.7649   -1.6877    3.4657 H   0  0  0  0  0  0
   -1.7655   -0.2413    1.4212 H   0  0  0  0  0  0
   -0.0737   -0.6736   -0.3471 H   0  0  0  0  0  0
  1  2  1  0  0  0
  2  3  1  0  0  0
  2 11  1  0  0  0
  2 12  1  0  0  0
  3 14  1  0  0  0
  3  4  1  0  0  0
  3 13  1  0  0  0
  4 15  1  0  0  0
  4  5  1  0  0  0
  4 16  1  0  0  0
  5  6  1  0  0  0
  5 10  2  0  0  0
  6 17  1  0  0  0
  6  7  2  0  0  0
  7  8  1  0  0  0
  8 18  1  0  0  0
  8  9  2  0  0  0
  9 10  1  0  0  0
  9 19  1  0  0  0
 10 20  1  0  0  0
M  END
> <r_mmod_Potential_Energy-S-OPLS>
54.1426124572754

> <b_mmod_Minimization_Converged-S-OPLS>
1

> <r_mmod_RMS_Derivative-S-OPLS>
0.00040086277294904

> <i_mmod_Times_Found-S-OPLS>
22

> <r_mmod_Relative_Potential_Energy-S-OPLS>
14.2507476806641

> <i_mmod_Conformation-S-OPLS>
12

> <i_mmod_Serial_Number-S-OPLS>
1

$$$$
pyrd10.xyz
                    3D
 Schrodinger Suite 2022-4.
 20 20  0  0  1  0            999 V2000
    3.5183   -3.0208    1.7777 Br  0  0  0  0  0  0
    3.8765   -1.8764    0.1875 C   0  0  0  0  0  0
    3.0753   -0.5604    0.2492 C   0  0  0  0  0  0
    1.5939   -0.6568   -0.1816 C   0  0  0  0  0  0
    0.6951   -1.4012    0.7938 C   0  0  0  0  0  0
    0.2748   -0.7978    1.9845 C   0  0  0  0  0  0
   -0.5325   -1.4161    2.8837 N   0  0  0  0  0  0
   -0.9417   -2.6792    2.6039 C   0  0  0  0  0  0
   -0.5715   -3.3550    1.4396 C   0  0  0  0  0  0
    0.2566   -2.7026    0.5237 C   0  0  0  0  0  0
    4.9488   -1.6765    0.1844 H   0  0  0  0  0  0
    3.6485   -2.4556   -0.7081 H   0  0  0  0  0  0
    3.1599   -0.1215    1.2448 H   0  0  0  0  0  0
    3.5590    0.1506   -0.4221 H   0  0  0  0  0  0
    1.5144   -1.1042   -1.1739 H   0  0  0  0  0  0
    1.1864    0.3492   -0.2971 H   0  0  0  0  0  0
    0.5878    0.2036    2.2406 H   0  0  0  0  0  0
   -1.5769   -3.1496    3.3407 H   0  0  0  0  0  0
   -0.9119   -4.3628    1.2532 H   0  0  0  0  0  0
    0.5625   -3.2101   -0.3792 H   0  0  0  0  0  0
  1  2  1  0  0  0
  2  3  1  0  0  0
  2 11  1  0  0  0
  2 12  1  0  0  0
  3 14  1  0  0  0
  3  4  1  0  0  0
  3 13  1  0  0  0
  4 15  1  0  0  0
  4  5  1  0  0  0
  4 16  1  0  0  0
  5  6  1  0  0  0
  5 10  2  0  0  0
  6 17  1  0  0  0
  6  7  2  0  0  0
  7  8  1  0  0  0
  8 18  1  0  0  0
  8  9  2  0  0  0
  9 10  1  0  0  0
  9 19  1  0  0  0
 10 20  1  0  0  0
M  END
> <r_mmod_Potential_Energy-S-OPLS>
54.6628684997559

> <b_mmod_Minimization_Converged-S-OPLS>
1

> <r_mmod_RMS_Derivative-S-OPLS>
0.000675958406645805

> <i_mmod_Times_Found-S-OPLS>
23

> <r_mmod_Relative_Potential_Energy-S-OPLS>
14.7710037231445

> <i_mmod_Conformation-S-OPLS>
13

> <i_mmod_Serial_Number-S-OPLS>
1

$$$$
