pyrd2.xyz
                    3D
 Schrodinger Suite 2022-4.
 14 14  0  0  1  0            999 V2000
   -1.4052   -2.4982   -0.4152 Cl  0  0  0  0  0  0
   -0.1958   -1.2752   -0.2347 C   0  0  0  0  0  0
    1.0997   -1.6625   -0.3651 N   0  0  0  0  0  0
    2.0714   -0.7266   -0.2290 C   0  0  0  0  0  0
    1.7950    0.6141    0.0388 C   0  0  0  0  0  0
    0.4621    1.0059    0.1717 C   0  0  0  0  0  0
   -0.5573    0.0563    0.0351 C   0  0  0  0  0  0
   -2.0125    0.4769    0.1788 C   0  0  0  0  0  0
    3.0886   -1.0753   -0.3400 H   0  0  0  0  0  0
    2.5942    1.3339    0.1412 H   0  0  0  0  0  0
    0.2271    2.0401    0.3792 H   0  0  0  0  0  0
   -2.4857   -0.0800    0.9884 H   0  0  0  0  0  0
   -2.1205    1.5418    0.3867 H   0  0  0  0  0  0
   -2.5610    0.2489   -0.7359 H   0  0  0  0  0  0
  1  2  1  0  0  0
  2  7  1  0  0  0
  2  3  2  0  0  0
  3  4  1  0  0  0
  4  5  2  0  0  0
  4  9  1  0  0  0
  5 10  1  0  0  0
  5  6  1  0  0  0
  6 11  1  0  0  0
  6  7  2  0  0  0
  7  8  1  0  0  0
  8 12  1  0  0  0
  8 13  1  0  0  0
  8 14  1  0  0  0
M  END
> <r_mmod_Potential_Energy-S-OPLS>
45.8103218078613

> <b_mmod_Minimization_Converged-S-OPLS>
1

> <r_mmod_RMS_Derivative-S-OPLS>
0.00019064120715484

> <i_mmod_Times_Found-S-OPLS>
1

> <r_mmod_Relative_Potential_Energy-S-OPLS>
0

> <i_mmod_Conformation-S-OPLS>
1

> <i_mmod_Serial_Number-S-OPLS>
1

$$$$
