pyrd12.xyz
                    3D
 Schrodinger Suite 2022-4.
 23 24  0  0  1  0            999 V2000
   -3.1250   -1.5537    0.2544 C   0  0  0  0  0  0
   -1.7108   -1.3942    0.2504 O   0  0  0  0  0  0
   -1.1724   -0.1276    0.1351 C   0  0  0  0  0  0
    0.2248   -0.0227    0.1365 C   0  0  0  0  0  0
    1.1872   -1.1985    0.2738 C   0  0  0  0  0  0
    2.5283   -0.9314   -0.4752 C   0  0  0  0  0  0
    3.0900    0.4947   -0.2642 C   0  0  0  0  0  0
    2.1485    1.4285   -0.0763 N   0  0  0  0  0  0
    4.2795    0.7800   -0.3100 O   0  0  0  0  0  0
    0.7801    1.2538    0.0217 C   0  0  0  0  0  0
    0.0594    2.3911   -0.0846 N   0  0  0  0  0  0
   -1.2895    2.2744   -0.0759 C   0  0  0  0  0  0
   -1.9396    1.0443    0.0269 C   0  0  0  0  0  0
   -3.5847   -1.0348    1.0970 H   0  0  0  0  0  0
   -3.5716   -1.1968   -0.6750 H   0  0  0  0  0  0
   -3.3670   -2.6123    0.3494 H   0  0  0  0  0  0
    1.3880   -1.3640    1.3339 H   0  0  0  0  0  0
    0.7273   -2.1195   -0.0889 H   0  0  0  0  0  0
    3.2985   -1.6382   -0.1682 H   0  0  0  0  0  0
    2.3945   -1.0443   -1.5505 H   0  0  0  0  0  0
    2.5205    2.3557    0.0253 H   0  0  0  0  0  0
   -1.8496    3.1962   -0.1598 H   0  0  0  0  0  0
   -3.0165    1.0194    0.0243 H   0  0  0  0  0  0
  1 14  1  0  0  0
  1  2  1  0  0  0
  1 15  1  0  0  0
  1 16  1  0  0  0
  2  3  1  0  0  0
  3  4  1  0  0  0
  3 13  2  0  0  0
  4  5  1  0  0  0
  4 10  2  0  0  0
  5 17  1  0  0  0
  5  6  1  0  0  0
  5 18  1  0  0  0
  6 19  1  0  0  0
  6  7  1  0  0  0
  6 20  1  0  0  0
  7  9  2  0  0  0
  7  8  1  0  0  0
  8 10  1  0  0  0
  8 21  1  0  0  0
 10 11  1  0  0  0
 11 12  2  0  0  0
 12 13  1  0  0  0
 12 22  1  0  0  0
 13 23  1  0  0  0
M  END
> <r_mmod_Potential_Energy-S-OPLS>
-207.555206298828

> <b_mmod_Minimization_Converged-S-OPLS>
1

> <r_mmod_RMS_Derivative-S-OPLS>
0.00092736940132454

> <i_mmod_Times_Found-S-OPLS>
400

> <r_mmod_Relative_Potential_Energy-S-OPLS>
0

> <i_mmod_Conformation-S-OPLS>
1

> <i_mmod_Serial_Number-S-OPLS>
1

$$$$
