pyrd4.xyz
                    3D
 Schrodinger Suite 2022-4.
 52 55  0  0  1  0            999 V2000
    2.7837    0.9482    1.9222 O   0  0  0  0  0  0
    1.9368    0.9840    2.8143 C   0  0  0  0  0  0
    2.2036    1.1560    4.1225 N   0  0  0  0  0  0
    3.4149    1.3874    4.7802 C   0  0  0  0  0  0
    3.2830    1.4496    6.1286 N   0  0  0  0  0  0
    4.3918    1.6730    6.8771 C   0  0  0  0  0  0
    5.6584    1.8436    6.3182 C   0  0  0  0  0  0
    5.7963    1.7834    4.9288 C   0  0  0  0  0  0
    7.1710    1.9683    4.2953 C   0  0  0  0  0  0
    7.6101    1.1994    3.0667 C   0  0  0  0  0  0
    7.3699    2.6921    2.9800 C   0  0  0  0  0  0
    4.6571    1.5527    4.1479 C   0  0  0  0  0  0
    0.4742    0.7811    2.4813 C   0  0  0  0  0  0
   -0.5469    1.3524    3.2599 C   0  0  0  0  0  0
   -1.8838    1.1485    2.9270 C   0  0  0  0  0  0
   -2.2259    0.3797    1.8135 C   0  0  0  0  0  0
   -3.7470    0.1504    1.4390 B   0  0  0  0  0  0
   -4.1768   -0.5882    0.3598 O   0  0  0  0  0  0
   -5.5719   -0.7780    0.5080 C   0  0  0  0  0  0
   -6.1745   -0.8206   -0.9108 C   0  0  0  0  0  0
   -5.7335   -2.1514    1.2064 C   0  0  0  0  0  0
   -5.9714    0.4748    1.3705 C   0  0  0  0  0  0
   -6.1655    1.7953    0.5839 C   0  0  0  0  0  0
   -7.1415    0.2541    2.3503 C   0  0  0  0  0  0
   -4.8064    0.6649    2.1524 O   0  0  0  0  0  0
   -1.2160   -0.1798    1.0295 C   0  0  0  0  0  0
    0.1220    0.0216    1.3573 C   0  0  0  0  0  0
    1.4148    1.0845    4.7372 H   0  0  0  0  0  0
    4.2477    1.7135    7.9473 H   0  0  0  0  0  0
    6.5147    2.0192    6.9519 H   0  0  0  0  0  0
    7.9549    2.1374    5.0361 H   0  0  0  0  0  0
    6.9035    0.5132    2.5962 H   0  0  0  0  0  0
    8.6315    0.8182    3.0312 H   0  0  0  0  0  0
    8.2216    3.3667    2.8830 H   0  0  0  0  0  0
    6.4932    3.0649    2.4474 H   0  0  0  0  0  0
    4.7554    1.5084    3.0760 H   0  0  0  0  0  0
   -0.3245    1.9731    4.1164 H   0  0  0  0  0  0
   -2.6628    1.5936    3.5302 H   0  0  0  0  0  0
   -5.9052    0.0580   -1.4973 H   0  0  0  0  0  0
   -7.2621   -0.8754   -0.8728 H   0  0  0  0  0  0
   -5.8165   -1.6873   -1.4676 H   0  0  0  0  0  0
   -6.7844   -2.4115    1.3299 H   0  0  0  0  0  0
   -5.2714   -2.1607    2.1944 H   0  0  0  0  0  0
   -5.2653   -2.9494    0.6288 H   0  0  0  0  0  0
   -7.0694    1.7648   -0.0238 H   0  0  0  0  0  0
   -5.3256    1.9977   -0.0821 H   0  0  0  0  0  0
   -6.2521    2.6503    1.2554 H   0  0  0  0  0  0
   -8.0592    0.0112    1.8153 H   0  0  0  0  0  0
   -7.3310    1.1459    2.9487 H   0  0  0  0  0  0
   -6.9413   -0.5549    3.0529 H   0  0  0  0  0  0
   -1.4719   -0.7703    0.1609 H   0  0  0  0  0  0
    0.8883   -0.4172    0.7311 H   0  0  0  0  0  0
  1  2  2  0  0  0
  2 13  1  0  0  0
  2  3  1  0  0  0
  3  4  1  0  0  0
  3 28  1  0  0  0
  4 12  1  0  0  0
  4  5  2  0  0  0
  5  6  1  0  0  0
  6  7  2  0  0  0
  6 29  1  0  0  0
  7  8  1  0  0  0
  7 30  1  0  0  0
  8 12  2  0  0  0
  8  9  1  0  0  0
  9 10  1  0  0  0
  9 11  1  0  0  0
  9 31  1  0  0  0
 10 33  1  0  0  0
 10 32  1  0  0  0
 10 11  1  0  0  0
 11 34  1  0  0  0
 11 35  1  0  0  0
 12 36  1  0  0  0
 13 14  1  0  0  0
 13 27  2  0  0  0
 14 15  2  0  0  0
 14 37  1  0  0  0
 15 38  1  0  0  0
 15 16  1  0  0  0
 16 17  1  0  0  0
 16 26  2  0  0  0
 17 18  1  0  0  0
 17 25  1  0  0  0
 18 19  1  0  0  0
 19 20  1  0  0  0
 19 21  1  0  0  0
 19 22  1  0  0  0
 20 39  1  0  0  0
 20 40  1  0  0  0
 20 41  1  0  0  0
 21 44  1  0  0  0
 21 42  1  0  0  0
 21 43  1  0  0  0
 22 25  1  0  0  0
 22 23  1  0  0  0
 22 24  1  0  0  0
 23 46  1  0  0  0
 23 45  1  0  0  0
 23 47  1  0  0  0
 24 49  1  0  0  0
 24 48  1  0  0  0
 24 50  1  0  0  0
 26 27  1  0  0  0
 26 51  1  0  0  0
 27 52  1  0  0  0
M  END
> <r_mmod_Potential_Energy-S-OPLS>
-60.2505493164062

> <b_mmod_Minimization_Converged-S-OPLS>
1

> <r_mmod_RMS_Derivative-S-OPLS>
0.000832452205941081

> <i_mmod_Times_Found-S-OPLS>
115

> <r_mmod_Relative_Potential_Energy-S-OPLS>
0

> <i_mmod_Conformation-S-OPLS>
1

> <i_mmod_Serial_Number-S-OPLS>
1

$$$$
pyrd4.xyz
                    3D
 Schrodinger Suite 2022-4.
 52 55  0  0  1  0            999 V2000
    2.7422    1.2432    1.8993 O   0  0  0  0  0  0
    1.9247    1.0772    2.8040 C   0  0  0  0  0  0
    2.2254    1.0379    4.1156 N   0  0  0  0  0  0
    3.4441    1.2225    4.7744 C   0  0  0  0  0  0
    3.3539    1.0453    6.1161 N   0  0  0  0  0  0
    4.4737    1.2006    6.8654 C   0  0  0  0  0  0
    5.7104    1.5369    6.3145 C   0  0  0  0  0  0
    5.8050    1.7235    4.9328 C   0  0  0  0  0  0
    7.1463    2.0928    4.3084 C   0  0  0  0  0  0
    7.5840    1.5722    2.9552 C   0  0  0  0  0  0
    7.2630    3.0414    3.1336 C   0  0  0  0  0  0
    4.6541    1.5648    4.1510 C   0  0  0  0  0  0
    0.4645    0.8507    2.4757 C   0  0  0  0  0  0
   -0.5588    1.2210    3.3652 C   0  0  0  0  0  0
   -1.8934    1.0008    3.0337 C   0  0  0  0  0  0
   -2.2315    0.4155    1.8127 C   0  0  0  0  0  0
   -3.7501    0.1671    1.4401 B   0  0  0  0  0  0
   -4.1760   -0.4000    0.2602 O   0  0  0  0  0  0
   -5.5763   -0.2070    0.1822 C   0  0  0  0  0  0
   -5.7731    1.0892   -0.6433 C   0  0  0  0  0  0
   -6.1574   -1.4198   -0.5722 C   0  0  0  0  0  0
   -5.9667   -0.1110    1.7026 C   0  0  0  0  0  0
   -7.1556    0.8183    2.0200 C   0  0  0  0  0  0
   -6.1250   -1.4642    2.4400 C   0  0  0  0  0  0
   -4.8108    0.4912    2.2560 O   0  0  0  0  0  0
   -1.2202    0.0570    0.9203 C   0  0  0  0  0  0
    0.1155    0.2757    1.2461 C   0  0  0  0  0  0
    1.4623    0.8172    4.7272 H   0  0  0  0  0  0
    4.3634    1.0490    7.9296 H   0  0  0  0  0  0
    6.5769    1.6504    6.9486 H   0  0  0  0  0  0
    7.9444    2.1772    5.0484 H   0  0  0  0  0  0
    6.8992    0.9373    2.3901 H   0  0  0  0  0  0
    8.6223    1.2620    2.8302 H   0  0  0  0  0  0
    8.0744    3.7704    3.1345 H   0  0  0  0  0  0
    6.3507    3.4489    2.6945 H   0  0  0  0  0  0
    4.7189    1.7103    3.0855 H   0  0  0  0  0  0
   -0.3409    1.6979    4.3104 H   0  0  0  0  0  0
   -2.6743    1.2910    3.7229 H   0  0  0  0  0  0
   -5.3100    1.0087   -1.6275 H   0  0  0  0  0  0
   -5.3268    1.9547   -0.1519 H   0  0  0  0  0  0
   -6.8302    1.3042   -0.7968 H   0  0  0  0  0  0
   -7.2463   -1.3834   -0.5923 H   0  0  0  0  0  0
   -5.8638   -2.3656   -0.1166 H   0  0  0  0  0  0
   -5.8062   -1.4499   -1.6042 H   0  0  0  0  0  0
   -6.9804    1.8391    1.6799 H   0  0  0  0  0  0
   -7.3387    0.8753    3.0935 H   0  0  0  0  0  0
   -8.0690    0.4611    1.5450 H   0  0  0  0  0  0
   -6.2072   -1.3232    3.5184 H   0  0  0  0  0  0
   -5.2713   -2.1213    2.2690 H   0  0  0  0  0  0
   -7.0197   -1.9919    2.1108 H   0  0  0  0  0  0
   -1.4735   -0.3900   -0.0309 H   0  0  0  0  0  0
    0.8826   -0.0051    0.5357 H   0  0  0  0  0  0
  1  2  2  0  0  0
  2 13  1  0  0  0
  2  3  1  0  0  0
  3  4  1  0  0  0
  3 28  1  0  0  0
  4 12  1  0  0  0
  4  5  2  0  0  0
  5  6  1  0  0  0
  6  7  2  0  0  0
  6 29  1  0  0  0
  7  8  1  0  0  0
  7 30  1  0  0  0
  8 12  2  0  0  0
  8  9  1  0  0  0
  9 10  1  0  0  0
  9 11  1  0  0  0
  9 31  1  0  0  0
 10 33  1  0  0  0
 10 32  1  0  0  0
 10 11  1  0  0  0
 11 34  1  0  0  0
 11 35  1  0  0  0
 12 36  1  0  0  0
 13 14  1  0  0  0
 13 27  2  0  0  0
 14 15  2  0  0  0
 14 37  1  0  0  0
 15 38  1  0  0  0
 15 16  1  0  0  0
 16 17  1  0  0  0
 16 26  2  0  0  0
 17 18  1  0  0  0
 17 25  1  0  0  0
 18 19  1  0  0  0
 19 20  1  0  0  0
 19 21  1  0  0  0
 19 22  1  0  0  0
 20 39  1  0  0  0
 20 40  1  0  0  0
 20 41  1  0  0  0
 21 44  1  0  0  0
 21 42  1  0  0  0
 21 43  1  0  0  0
 22 25  1  0  0  0
 22 23  1  0  0  0
 22 24  1  0  0  0
 23 46  1  0  0  0
 23 45  1  0  0  0
 23 47  1  0  0  0
 24 49  1  0  0  0
 24 48  1  0  0  0
 24 50  1  0  0  0
 26 27  1  0  0  0
 26 51  1  0  0  0
 27 52  1  0  0  0
M  END
> <r_mmod_Potential_Energy-S-OPLS>
-60.2483444213867

> <b_mmod_Minimization_Converged-S-OPLS>
1

> <r_mmod_RMS_Derivative-S-OPLS>
0.000909272115677595

> <i_mmod_Times_Found-S-OPLS>
113

> <r_mmod_Relative_Potential_Energy-S-OPLS>
0.00220489501953125

> <i_mmod_Conformation-S-OPLS>
2

> <i_mmod_Serial_Number-S-OPLS>
1

$$$$
pyrd4.xyz
                    3D
 Schrodinger Suite 2022-4.
 52 55  0  0  1  0            999 V2000
    2.6883    0.9160    1.6969 O   0  0  0  0  0  0
    1.8733    0.9614    2.6177 C   0  0  0  0  0  0
    2.1864    1.1434    3.9141 N   0  0  0  0  0  0
    3.4207    1.3764    4.5272 C   0  0  0  0  0  0
    3.3346    1.4526    5.8786 N   0  0  0  0  0  0
    4.4687    1.6793    6.5870 C   0  0  0  0  0  0
    5.7160    1.8393    5.9839 C   0  0  0  0  0  0
    5.8062    1.7642    4.5896 C   0  0  0  0  0  0
    7.1380    1.9315    3.8662 C   0  0  0  0  0  0
    8.2030    2.9019    4.3322 C   0  0  0  0  0  0
    8.4432    1.4094    4.4291 C   0  0  0  0  0  0
    4.6415    1.5302    3.8513 C   0  0  0  0  0  0
    0.3994    0.7599    2.3379 C   0  0  0  0  0  0
   -0.5922    1.3407    3.1470 C   0  0  0  0  0  0
   -1.9405    1.1378    2.8630 C   0  0  0  0  0  0
   -2.3234    0.3607    1.7687 C   0  0  0  0  0  0
   -3.8573    0.1327    1.4497 B   0  0  0  0  0  0
   -4.3266   -0.6138    0.3925 O   0  0  0  0  0  0
   -5.7162   -0.7984    0.5913 C   0  0  0  0  0  0
   -6.3683   -0.8512   -0.8051 C   0  0  0  0  0  0
   -5.8566   -2.1653    1.3066 C   0  0  0  0  0  0
   -6.0819    0.4628    1.4565 C   0  0  0  0  0  0
   -6.3001    1.7772    0.6659 C   0  0  0  0  0  0
   -7.2175    0.2538    2.4786 C   0  0  0  0  0  0
   -4.8897    0.6562    2.1954 O   0  0  0  0  0  0
   -1.3431   -0.2081    0.9545 C   0  0  0  0  0  0
    0.0061   -0.0078    1.2334 C   0  0  0  0  0  0
    1.4194    1.0799    4.5566 H   0  0  0  0  0  0
    4.3611    1.7313    7.6610 H   0  0  0  0  0  0
    6.5931    2.0181    6.5867 H   0  0  0  0  0  0
    7.0381    1.8445    2.7819 H   0  0  0  0  0  0
    8.0235    3.4816    5.2386 H   0  0  0  0  0  0
    8.7359    3.4824    3.5776 H   0  0  0  0  0  0
    9.1458    0.9340    3.7431 H   0  0  0  0  0  0
    8.4353    0.9215    5.4047 H   0  0  0  0  0  0
    4.7043    1.4745    2.7765 H   0  0  0  0  0  0
   -0.3383    1.9679    3.9900 H   0  0  0  0  0  0
   -2.6967    1.5902    3.4894 H   0  0  0  0  0  0
   -6.1176    0.0216   -1.4082 H   0  0  0  0  0  0
   -7.4541   -0.9026   -0.7286 H   0  0  0  0  0  0
   -6.0323   -1.7236   -1.3667 H   0  0  0  0  0  0
   -6.9032   -2.4214    1.4691 H   0  0  0  0  0  0
   -5.3601   -2.1676    2.2778 H   0  0  0  0  0  0
   -5.4110   -2.9695    0.7198 H   0  0  0  0  0  0
   -7.2249    1.7441    0.0906 H   0  0  0  0  0  0
   -5.4836    1.9715   -0.0308 H   0  0  0  0  0  0
   -6.3609    2.6380    1.3328 H   0  0  0  0  0  0
   -8.1540    0.0090    1.9781 H   0  0  0  0  0  0
   -7.3836    1.1511    3.0756 H   0  0  0  0  0  0
   -6.9948   -0.5499    3.1806 H   0  0  0  0  0  0
   -1.6308   -0.8051    0.1003 H   0  0  0  0  0  0
    0.7489   -0.4540    0.5844 H   0  0  0  0  0  0
  1  2  2  0  0  0
  2 13  1  0  0  0
  2  3  1  0  0  0
  3  4  1  0  0  0
  3 28  1  0  0  0
  4 12  1  0  0  0
  4  5  2  0  0  0
  5  6  1  0  0  0
  6  7  2  0  0  0
  6 29  1  0  0  0
  7  8  1  0  0  0
  7 30  1  0  0  0
  8 12  2  0  0  0
  8  9  1  0  0  0
  9 10  1  0  0  0
  9 11  1  0  0  0
  9 31  1  0  0  0
 10 33  1  0  0  0
 10 32  1  0  0  0
 10 11  1  0  0  0
 11 34  1  0  0  0
 11 35  1  0  0  0
 12 36  1  0  0  0
 13 14  1  0  0  0
 13 27  2  0  0  0
 14 15  2  0  0  0
 14 37  1  0  0  0
 15 38  1  0  0  0
 15 16  1  0  0  0
 16 17  1  0  0  0
 16 26  2  0  0  0
 17 18  1  0  0  0
 17 25  1  0  0  0
 18 19  1  0  0  0
 19 20  1  0  0  0
 19 21  1  0  0  0
 19 22  1  0  0  0
 20 39  1  0  0  0
 20 40  1  0  0  0
 20 41  1  0  0  0
 21 44  1  0  0  0
 21 42  1  0  0  0
 21 43  1  0  0  0
 22 25  1  0  0  0
 22 23  1  0  0  0
 22 24  1  0  0  0
 23 46  1  0  0  0
 23 45  1  0  0  0
 23 47  1  0  0  0
 24 49  1  0  0  0
 24 48  1  0  0  0
 24 50  1  0  0  0
 26 27  1  0  0  0
 26 51  1  0  0  0
 27 52  1  0  0  0
M  END
> <r_mmod_Potential_Energy-S-OPLS>
-59.3077430725098

> <b_mmod_Minimization_Converged-S-OPLS>
1

> <r_mmod_RMS_Derivative-S-OPLS>
0.000974209629930556

> <i_mmod_Times_Found-S-OPLS>
105

> <r_mmod_Relative_Potential_Energy-S-OPLS>
0.942806243896484

> <i_mmod_Conformation-S-OPLS>
3

> <i_mmod_Serial_Number-S-OPLS>
1

$$$$
pyrd4.xyz
                    3D
 Schrodinger Suite 2022-4.
 52 55  0  0  1  0            999 V2000
    2.6589    1.1344    1.6750 O   0  0  0  0  0  0
    1.8600    1.0604    2.6080 C   0  0  0  0  0  0
    2.1758    1.2238    3.9062 N   0  0  0  0  0  0
    3.4118    1.4443    4.5203 C   0  0  0  0  0  0
    3.3134    1.6147    5.8623 N   0  0  0  0  0  0
    4.4486    1.8339    6.5712 C   0  0  0  0  0  0
    5.7100    1.8883    5.9785 C   0  0  0  0  0  0
    5.8137    1.7095    4.5946 C   0  0  0  0  0  0
    7.1616    1.7554    3.8832 C   0  0  0  0  0  0
    8.2712    2.6985    4.2983 C   0  0  0  0  0  0
    8.4296    1.2059    4.5021 C   0  0  0  0  0  0
    4.6478    1.4835    3.8557 C   0  0  0  0  0  0
    0.3921    0.8134    2.3331 C   0  0  0  0  0  0
   -0.4354    0.1653    3.2661 C   0  0  0  0  0  0
   -1.7822   -0.0487    2.9833 C   0  0  0  0  0  0
   -2.3252    0.3721    1.7684 C   0  0  0  0  0  0
   -3.8568    0.1266    1.4512 B   0  0  0  0  0  0
   -4.4762    0.5036    0.2811 O   0  0  0  0  0  0
   -5.7484   -0.1171    0.2596 C   0  0  0  0  0  0
   -6.7026    0.8359   -0.4882 C   0  0  0  0  0  0
   -5.5581   -1.4303   -0.5401 C   0  0  0  0  0  0
   -6.0399   -0.2919    1.7950 C   0  0  0  0  0  0
   -6.5880    0.9629    2.5196 C   0  0  0  0  0  0
   -6.8692   -1.5366    2.1705 C   0  0  0  0  0  0
   -4.7367   -0.4909    2.3117 O   0  0  0  0  0  0
   -1.5054    1.0050    0.8330 C   0  0  0  0  0  0
   -0.1583    1.2207    1.1102 C   0  0  0  0  0  0
    1.4021    1.2106    4.5438 H   0  0  0  0  0  0
    4.3304    1.9673    7.6370 H   0  0  0  0  0  0
    6.5874    2.0653    6.5814 H   0  0  0  0  0  0
    7.0707    1.5991    2.8059 H   0  0  0  0  0  0
    8.1115    3.3490    5.1592 H   0  0  0  0  0  0
    8.8438    3.1960    3.5141 H   0  0  0  0  0  0
    9.1145    0.6475    3.8622 H   0  0  0  0  0  0
    8.3834    0.7888    5.5090 H   0  0  0  0  0  0
    4.7219    1.3418    2.7896 H   0  0  0  0  0  0
   -0.0493   -0.1966    4.2086 H   0  0  0  0  0  0
   -2.4110   -0.5502    3.7058 H   0  0  0  0  0  0
   -6.7037    1.8371   -0.0570 H   0  0  0  0  0  0
   -7.7260    0.4622   -0.4659 H   0  0  0  0  0  0
   -6.4118    0.9481   -1.5333 H   0  0  0  0  0  0
   -6.4999   -1.9671   -0.6499 H   0  0  0  0  0  0
   -4.8486   -2.1017   -0.0546 H   0  0  0  0  0  0
   -5.1752   -1.2342   -1.5424 H   0  0  0  0  0  0
   -7.6128    1.1779    2.2181 H   0  0  0  0  0  0
   -5.9876    1.8484    2.3070 H   0  0  0  0  0  0
   -6.5872    0.8302    3.6022 H   0  0  0  0  0  0
   -7.8633   -1.4930    1.7263 H   0  0  0  0  0  0
   -6.9906   -1.6210    3.2509 H   0  0  0  0  0  0
   -6.3958   -2.4604    1.8377 H   0  0  0  0  0  0
   -1.9160    1.3274   -0.1137 H   0  0  0  0  0  0
    0.4598    1.7083    0.3671 H   0  0  0  0  0  0
  1  2  2  0  0  0
  2 13  1  0  0  0
  2  3  1  0  0  0
  3  4  1  0  0  0
  3 28  1  0  0  0
  4 12  1  0  0  0
  4  5  2  0  0  0
  5  6  1  0  0  0
  6  7  2  0  0  0
  6 29  1  0  0  0
  7  8  1  0  0  0
  7 30  1  0  0  0
  8 12  2  0  0  0
  8  9  1  0  0  0
  9 10  1  0  0  0
  9 11  1  0  0  0
  9 31  1  0  0  0
 10 33  1  0  0  0
 10 32  1  0  0  0
 10 11  1  0  0  0
 11 34  1  0  0  0
 11 35  1  0  0  0
 12 36  1  0  0  0
 13 14  1  0  0  0
 13 27  2  0  0  0
 14 15  2  0  0  0
 14 37  1  0  0  0
 15 38  1  0  0  0
 15 16  1  0  0  0
 16 17  1  0  0  0
 16 26  2  0  0  0
 17 18  1  0  0  0
 17 25  1  0  0  0
 18 19  1  0  0  0
 19 20  1  0  0  0
 19 21  1  0  0  0
 19 22  1  0  0  0
 20 39  1  0  0  0
 20 40  1  0  0  0
 20 41  1  0  0  0
 21 44  1  0  0  0
 21 42  1  0  0  0
 21 43  1  0  0  0
 22 25  1  0  0  0
 22 23  1  0  0  0
 22 24  1  0  0  0
 23 46  1  0  0  0
 23 45  1  0  0  0
 23 47  1  0  0  0
 24 49  1  0  0  0
 24 48  1  0  0  0
 24 50  1  0  0  0
 26 27  1  0  0  0
 26 51  1  0  0  0
 27 52  1  0  0  0
M  END
> <r_mmod_Potential_Energy-S-OPLS>
-59.305477142334

> <b_mmod_Minimization_Converged-S-OPLS>
1

> <r_mmod_RMS_Derivative-S-OPLS>
0.000921796599868685

> <i_mmod_Times_Found-S-OPLS>
103

> <r_mmod_Relative_Potential_Energy-S-OPLS>
0.945072174072266

> <i_mmod_Conformation-S-OPLS>
4

> <i_mmod_Serial_Number-S-OPLS>
1

$$$$
pyrd4.xyz
                    3D
 Schrodinger Suite 2022-4.
 52 55  0  0  1  0            999 V2000
    1.0281    1.4358    5.9315 O   0  0  0  0  0  0
    1.1557    1.1301    4.7463 C   0  0  0  0  0  0
    2.3326    1.0432    4.0961 N   0  0  0  0  0  0
    3.6271    1.2264    4.5968 C   0  0  0  0  0  0
    3.8992    1.1014    5.9245 N   0  0  0  0  0  0
    5.1779    1.2665    6.3407 C   0  0  0  0  0  0
    6.2261    1.5470    5.4637 C   0  0  0  0  0  0
    5.9505    1.6637    4.0983 C   0  0  0  0  0  0
    7.0820    1.9689    3.1227 C   0  0  0  0  0  0
    7.1415    1.3758    1.7306 C   0  0  0  0  0  0
    6.8960    2.8595    1.9122 C   0  0  0  0  0  0
    4.6301    1.4967    3.6610 C   0  0  0  0  0  0
   -0.0653    0.8762    3.8892 C   0  0  0  0  0  0
   -0.0299   -0.0099    2.7992 C   0  0  0  0  0  0
   -1.1703   -0.2230    2.0286 C   0  0  0  0  0  0
   -2.3626    0.4357    2.3331 C   0  0  0  0  0  0
   -3.6565    0.1902    1.4545 B   0  0  0  0  0  0
   -3.7050   -0.6506    0.3652 O   0  0  0  0  0  0
   -5.0686   -0.8128    0.0203 C   0  0  0  0  0  0
   -5.1283   -1.0005   -1.5091 C   0  0  0  0  0  0
   -5.5308   -2.1031    0.7426 C   0  0  0  0  0  0
   -5.6916    0.5274    0.5576 C   0  0  0  0  0  0
   -5.5327    1.7588   -0.3689 C   0  0  0  0  0  0
   -7.1425    0.4212    1.0691 C   0  0  0  0  0  0
   -4.8742    0.7902    1.6832 O   0  0  0  0  0  0
   -2.4067    1.3062    3.4232 C   0  0  0  0  0  0
   -1.2700    1.5219    4.1975 C   0  0  0  0  0  0
    2.2579    0.9286    3.1040 H   0  0  0  0  0  0
    5.3466    1.1687    7.4036 H   0  0  0  0  0  0
    7.2302    1.6710    5.8405 H   0  0  0  0  0  0
    8.0486    2.0684    3.6210 H   0  0  0  0  0  0
    6.3278    0.7288    1.4001 H   0  0  0  0  0  0
    8.1079    1.0355    1.3556 H   0  0  0  0  0  0
    7.6889    3.5675    1.6661 H   0  0  0  0  0  0
    5.9067    3.2740    1.7134 H   0  0  0  0  0  0
    4.3957    1.5847    2.6121 H   0  0  0  0  0  0
    0.8667   -0.5586    2.5475 H   0  0  0  0  0  0
   -1.1360   -0.9093    1.1939 H   0  0  0  0  0  0
   -4.6289   -0.1910   -2.0416 H   0  0  0  0  0  0
   -6.1598   -1.0423   -1.8580 H   0  0  0  0  0  0
   -4.6359   -1.9243   -1.8146 H   0  0  0  0  0  0
   -6.5677   -2.3398    0.5053 H   0  0  0  0  0  0
   -5.4521   -2.0114    1.8267 H   0  0  0  0  0  0
   -4.9249   -2.9619    0.4514 H   0  0  0  0  0  0
   -6.1618    1.6718   -1.2543 H   0  0  0  0  0  0
   -4.5026    1.8831   -0.7050 H   0  0  0  0  0  0
   -5.8140    2.6804    0.1421 H   0  0  0  0  0  0
   -7.8203    0.1303    0.2669 H   0  0  0  0  0  0
   -7.4916    1.3728    1.4714 H   0  0  0  0  0  0
   -7.2421   -0.3101    1.8713 H   0  0  0  0  0  0
   -3.3284    1.8133    3.6721 H   0  0  0  0  0  0
   -1.3284    2.1956    5.0431 H   0  0  0  0  0  0
  1  2  2  0  0  0
  2 13  1  0  0  0
  2  3  1  0  0  0
  3  4  1  0  0  0
  3 28  1  0  0  0
  4 12  1  0  0  0
  4  5  2  0  0  0
  5  6  1  0  0  0
  6  7  2  0  0  0
  6 29  1  0  0  0
  7  8  1  0  0  0
  7 30  1  0  0  0
  8 12  2  0  0  0
  8  9  1  0  0  0
  9 10  1  0  0  0
  9 11  1  0  0  0
  9 31  1  0  0  0
 10 33  1  0  0  0
 10 32  1  0  0  0
 10 11  1  0  0  0
 11 34  1  0  0  0
 11 35  1  0  0  0
 12 36  1  0  0  0
 13 14  1  0  0  0
 13 27  2  0  0  0
 14 15  2  0  0  0
 14 37  1  0  0  0
 15 38  1  0  0  0
 15 16  1  0  0  0
 16 17  1  0  0  0
 16 26  2  0  0  0
 17 18  1  0  0  0
 17 25  1  0  0  0
 18 19  1  0  0  0
 19 20  1  0  0  0
 19 21  1  0  0  0
 19 22  1  0  0  0
 20 39  1  0  0  0
 20 40  1  0  0  0
 20 41  1  0  0  0
 21 44  1  0  0  0
 21 42  1  0  0  0
 21 43  1  0  0  0
 22 25  1  0  0  0
 22 23  1  0  0  0
 22 24  1  0  0  0
 23 46  1  0  0  0
 23 45  1  0  0  0
 23 47  1  0  0  0
 24 49  1  0  0  0
 24 48  1  0  0  0
 24 50  1  0  0  0
 26 27  1  0  0  0
 26 51  1  0  0  0
 27 52  1  0  0  0
M  END
> <r_mmod_Potential_Energy-S-OPLS>
-39.4865608215332

> <b_mmod_Minimization_Converged-S-OPLS>
1

> <r_mmod_RMS_Derivative-S-OPLS>
0.00097719905897975

> <i_mmod_Times_Found-S-OPLS>
92

> <r_mmod_Relative_Potential_Energy-S-OPLS>
20.763988494873

> <i_mmod_Conformation-S-OPLS>
5

> <i_mmod_Serial_Number-S-OPLS>
1

$$$$
pyrd4.xyz
                    3D
 Schrodinger Suite 2022-4.
 52 55  0  0  1  0            999 V2000
    2.0681   -1.4948    4.2482 O   0  0  0  0  0  0
    1.6911   -0.3827    3.8797 C   0  0  0  0  0  0
    2.4361    0.7388    3.9310 N   0  0  0  0  0  0
    3.7330    0.9083    4.4305 C   0  0  0  0  0  0
    4.2667    0.0381    5.3305 N   0  0  0  0  0  0
    5.5181    0.2734    5.7937 C   0  0  0  0  0  0
    6.2747    1.3757    5.3951 C   0  0  0  0  0  0
    5.7234    2.2772    4.4800 C   0  0  0  0  0  0
    6.5333    3.4891    4.0321 C   0  0  0  0  0  0
    6.4806    4.0265    2.6174 C   0  0  0  0  0  0
    5.9007    4.8374    3.7579 C   0  0  0  0  0  0
    4.4310    2.0388    3.9950 C   0  0  0  0  0  0
    0.3203   -0.2086    3.2629 C   0  0  0  0  0  0
   -0.3921    0.9971    3.3772 C   0  0  0  0  0  0
   -1.6523    1.1271    2.7986 C   0  0  0  0  0  0
   -2.2248    0.0603    2.1041 C   0  0  0  0  0  0
   -3.6578    0.2124    1.4484 B   0  0  0  0  0  0
   -4.3010   -0.7851    0.7511 O   0  0  0  0  0  0
   -5.6419   -0.3709    0.5653 C   0  0  0  0  0  0
   -6.1130   -0.9581   -0.7805 C   0  0  0  0  0  0
   -6.4381   -0.9973    1.7375 C   0  0  0  0  0  0
   -5.4960    1.1945    0.6017 C   0  0  0  0  0  0
   -5.0361    1.8549   -0.7220 C   0  0  0  0  0  0
   -6.7000    1.9545    1.1937 C   0  0  0  0  0  0
   -4.4173    1.3596    1.5042 O   0  0  0  0  0  0
   -1.5272   -1.1440    1.9995 C   0  0  0  0  0  0
   -0.2677   -1.2797    2.5770 C   0  0  0  0  0  0
    2.0407    1.5287    3.4593 H   0  0  0  0  0  0
    5.9060   -0.4482    6.4983 H   0  0  0  0  0  0
    7.2685    1.5231    5.7903 H   0  0  0  0  0  0
    7.5182    3.5310    4.5021 H   0  0  0  0  0  0
    5.8141    3.5471    1.8989 H   0  0  0  0  0  0
    7.4140    4.3476    2.1525 H   0  0  0  0  0  0
    6.4244    5.7318    4.0987 H   0  0  0  0  0  0
    4.8190    4.9394    3.8546 H   0  0  0  0  0  0
    3.9879    2.7209    3.2868 H   0  0  0  0  0  0
    0.0056    1.8368    3.9294 H   0  0  0  0  0  0
   -2.1959    2.0567    2.8945 H   0  0  0  0  0  0
   -6.1429   -2.0477   -0.7485 H   0  0  0  0  0  0
   -5.4471   -0.6898   -1.6008 H   0  0  0  0  0  0
   -7.1124   -0.6051   -1.0333 H   0  0  0  0  0  0
   -7.5008   -0.7691    1.6611 H   0  0  0  0  0  0
   -6.0897   -0.6332    2.7050 H   0  0  0  0  0  0
   -6.3376   -2.0832    1.7519 H   0  0  0  0  0  0
   -5.8210    1.8163   -1.4769 H   0  0  0  0  0  0
   -4.1547    1.3631   -1.1354 H   0  0  0  0  0  0
   -4.7760    2.9038   -0.5748 H   0  0  0  0  0  0
   -7.5959    1.7962    0.5939 H   0  0  0  0  0  0
   -6.5110    3.0278    1.2333 H   0  0  0  0  0  0
   -6.9222    1.6402    2.2136 H   0  0  0  0  0  0
   -1.9669   -1.9786    1.4714 H   0  0  0  0  0  0
    0.2528   -2.2251    2.4901 H   0  0  0  0  0  0
  1  2  2  0  0  0
  2 13  1  0  0  0
  2  3  1  0  0  0
  3  4  1  0  0  0
  3 28  1  0  0  0
  4 12  1  0  0  0
  4  5  2  0  0  0
  5  6  1  0  0  0
  6  7  2  0  0  0
  6 29  1  0  0  0
  7  8  1  0  0  0
  7 30  1  0  0  0
  8 12  2  0  0  0
  8  9  1  0  0  0
  9 10  1  0  0  0
  9 11  1  0  0  0
  9 31  1  0  0  0
 10 33  1  0  0  0
 10 32  1  0  0  0
 10 11  1  0  0  0
 11 34  1  0  0  0
 11 35  1  0  0  0
 12 36  1  0  0  0
 13 14  1  0  0  0
 13 27  2  0  0  0
 14 15  2  0  0  0
 14 37  1  0  0  0
 15 38  1  0  0  0
 15 16  1  0  0  0
 16 17  1  0  0  0
 16 26  2  0  0  0
 17 18  1  0  0  0
 17 25  1  0  0  0
 18 19  1  0  0  0
 19 20  1  0  0  0
 19 21  1  0  0  0
 19 22  1  0  0  0
 20 39  1  0  0  0
 20 40  1  0  0  0
 20 41  1  0  0  0
 21 44  1  0  0  0
 21 42  1  0  0  0
 21 43  1  0  0  0
 22 25  1  0  0  0
 22 23  1  0  0  0
 22 24  1  0  0  0
 23 46  1  0  0  0
 23 45  1  0  0  0
 23 47  1  0  0  0
 24 49  1  0  0  0
 24 48  1  0  0  0
 24 50  1  0  0  0
 26 27  1  0  0  0
 26 51  1  0  0  0
 27 52  1  0  0  0
M  END
> <r_mmod_Potential_Energy-S-OPLS>
-39.4776229858398

> <b_mmod_Minimization_Converged-S-OPLS>
1

> <r_mmod_RMS_Derivative-S-OPLS>
0.00075930857565254

> <i_mmod_Times_Found-S-OPLS>
74

> <r_mmod_Relative_Potential_Energy-S-OPLS>
20.7729263305664

> <i_mmod_Conformation-S-OPLS>
6

> <i_mmod_Serial_Number-S-OPLS>
1

$$$$
pyrd4.xyz
                    3D
 Schrodinger Suite 2022-4.
 52 55  0  0  1  0            999 V2000
    1.0272    1.3983    5.8017 O   0  0  0  0  0  0
    1.1184    1.1114    4.6084 C   0  0  0  0  0  0
    2.2739    1.0468    3.9183 N   0  0  0  0  0  0
    3.5825    1.2363    4.3787 C   0  0  0  0  0  0
    3.8993    1.0960    5.6948 N   0  0  0  0  0  0
    5.1894    1.2682    6.0713 C   0  0  0  0  0  0
    6.2052    1.5708    5.1643 C   0  0  0  0  0  0
    5.8827    1.7034    3.8089 C   0  0  0  0  0  0
    6.9456    2.0316    2.7657 C   0  0  0  0  0  0
    8.1019    2.9677    3.0481 C   0  0  0  0  0  0
    8.3573    1.4890    2.8423 C   0  0  0  0  0  0
    4.5517    1.5293    3.4141 C   0  0  0  0  0  0
   -0.1277    0.8569    3.7886 C   0  0  0  0  0  0
   -0.1195   -0.0126    2.6847 C   0  0  0  0  0  0
   -1.2827   -0.2267    1.9493 C   0  0  0  0  0  0
   -2.4710    0.4143    2.3032 C   0  0  0  0  0  0
   -3.7908    0.1678    1.4644 B   0  0  0  0  0  0
   -3.8669   -0.6574    0.3647 O   0  0  0  0  0  0
   -5.2395   -0.8291    0.0626 C   0  0  0  0  0  0
   -5.3480   -0.9947   -1.4667 C   0  0  0  0  0  0
   -5.6643   -2.1348    0.7801 C   0  0  0  0  0  0
   -5.8580    0.4963    0.6404 C   0  0  0  0  0  0
   -5.7424    1.7430   -0.2720 C   0  0  0  0  0  0
   -7.2900    0.3671    1.1978 C   0  0  0  0  0  0
   -5.0064    0.7511    1.7423 O   0  0  0  0  0  0
   -2.4878    1.2681    3.4071 C   0  0  0  0  0  0
   -1.3282    1.4848    4.1464 C   0  0  0  0  0  0
    2.1672    0.9456    2.9277 H   0  0  0  0  0  0
    5.3940    1.1576    7.1266 H   0  0  0  0  0  0
    7.2194    1.6993    5.5101 H   0  0  0  0  0  0
    6.5347    2.1022    1.7566 H   0  0  0  0  0  0
    8.1958    3.3992    4.0458 H   0  0  0  0  0  0
    8.3957    3.6750    2.2711 H   0  0  0  0  0  0
    8.8323    1.1514    1.9200 H   0  0  0  0  0  0
    8.6343    0.8650    3.6934 H   0  0  0  0  0  0
    4.2826    1.6293    2.3741 H   0  0  0  0  0  0
    0.7738   -0.5477    2.3951 H   0  0  0  0  0  0
   -1.2691   -0.9002    1.1037 H   0  0  0  0  0  0
   -4.8748   -0.1721   -2.0030 H   0  0  0  0  0  0
   -6.3900   -1.0423   -1.7820 H   0  0  0  0  0  0
   -4.8566   -1.9085   -1.8023 H   0  0  0  0  0  0
   -6.7060   -2.3791    0.5736 H   0  0  0  0  0  0
   -5.5506   -2.0583    1.8623 H   0  0  0  0  0  0
   -5.0596   -2.9827    0.4560 H   0  0  0  0  0  0
   -6.3996    1.6624   -1.1374 H   0  0  0  0  0  0
   -4.7253    1.8833   -0.6400 H   0  0  0  0  0  0
   -6.0160    2.6539    0.2620 H   0  0  0  0  0  0
   -7.9909    0.0809    0.4141 H   0  0  0  0  0  0
   -7.6352    1.3088    1.6258 H   0  0  0  0  0  0
   -7.3555   -0.3772    1.9917 H   0  0  0  0  0  0
   -3.4059    1.7614    3.6941 H   0  0  0  0  0  0
   -1.3654    2.1453    5.0035 H   0  0  0  0  0  0
  1  2  2  0  0  0
  2 13  1  0  0  0
  2  3  1  0  0  0
  3  4  1  0  0  0
  3 28  1  0  0  0
  4 12  1  0  0  0
  4  5  2  0  0  0
  5  6  1  0  0  0
  6  7  2  0  0  0
  6 29  1  0  0  0
  7  8  1  0  0  0
  7 30  1  0  0  0
  8 12  2  0  0  0
  8  9  1  0  0  0
  9 10  1  0  0  0
  9 11  1  0  0  0
  9 31  1  0  0  0
 10 33  1  0  0  0
 10 32  1  0  0  0
 10 11  1  0  0  0
 11 34  1  0  0  0
 11 35  1  0  0  0
 12 36  1  0  0  0
 13 14  1  0  0  0
 13 27  2  0  0  0
 14 15  2  0  0  0
 14 37  1  0  0  0
 15 38  1  0  0  0
 15 16  1  0  0  0
 16 17  1  0  0  0
 16 26  2  0  0  0
 17 18  1  0  0  0
 17 25  1  0  0  0
 18 19  1  0  0  0
 19 20  1  0  0  0
 19 21  1  0  0  0
 19 22  1  0  0  0
 20 39  1  0  0  0
 20 40  1  0  0  0
 20 41  1  0  0  0
 21 44  1  0  0  0
 21 42  1  0  0  0
 21 43  1  0  0  0
 22 25  1  0  0  0
 22 23  1  0  0  0
 22 24  1  0  0  0
 23 46  1  0  0  0
 23 45  1  0  0  0
 23 47  1  0  0  0
 24 49  1  0  0  0
 24 48  1  0  0  0
 24 50  1  0  0  0
 26 27  1  0  0  0
 26 51  1  0  0  0
 27 52  1  0  0  0
M  END
> <r_mmod_Potential_Energy-S-OPLS>
-39.2703857421875

> <b_mmod_Minimization_Converged-S-OPLS>
1

> <r_mmod_RMS_Derivative-S-OPLS>
0.000935744377784431

> <i_mmod_Times_Found-S-OPLS>
96

> <r_mmod_Relative_Potential_Energy-S-OPLS>
20.9801635742188

> <i_mmod_Conformation-S-OPLS>
7

> <i_mmod_Serial_Number-S-OPLS>
1

$$$$
pyrd4.xyz
                    3D
 Schrodinger Suite 2022-4.
 52 55  0  0  1  0            999 V2000
    2.1240   -1.4773    3.8620 O   0  0  0  0  0  0
    1.6774   -0.3563    3.6199 C   0  0  0  0  0  0
    2.3678    0.7929    3.7542 N   0  0  0  0  0  0
    3.6747    0.9820    4.2194 C   0  0  0  0  0  0
    4.2886    0.0574    5.0072 N   0  0  0  0  0  0
    5.5452    0.3127    5.4449 C   0  0  0  0  0  0
    6.2284    1.4877    5.1310 C   0  0  0  0  0  0
    5.5936    2.4447    4.3310 C   0  0  0  0  0  0
    6.2838    3.7508    3.9522 C   0  0  0  0  0  0
    7.2000    4.4933    4.9023 C   0  0  0  0  0  0
    7.7679    3.8333    3.6629 C   0  0  0  0  0  0
    4.2968    2.1858    3.8736 C   0  0  0  0  0  0
    0.2747   -0.1963    3.0753 C   0  0  0  0  0  0
   -0.4907    0.9530    3.3351 C   0  0  0  0  0  0
   -1.7793    1.0713    2.8199 C   0  0  0  0  0  0
   -2.3277    0.0480    2.0452 C   0  0  0  0  0  0
   -3.7930    0.1866    1.4620 B   0  0  0  0  0  0
   -4.6050    1.2810    1.6595 O   0  0  0  0  0  0
   -5.7114    1.1472    0.7860 C   0  0  0  0  0  0
   -6.9252    1.7813    1.4948 C   0  0  0  0  0  0
   -5.3409    1.9565   -0.4820 C   0  0  0  0  0  0
   -5.7817   -0.4128    0.6001 C   0  0  0  0  0  0
   -6.4958   -1.1913    1.7333 C   0  0  0  0  0  0
   -6.2798   -0.8907   -0.7788 C   0  0  0  0  0  0
   -4.4154   -0.7713    0.6939 O   0  0  0  0  0  0
   -1.5767   -1.1017    1.7957 C   0  0  0  0  0  0
   -0.2886   -1.2256    2.3092 C   0  0  0  0  0  0
    1.9140    1.6028    3.3785 H   0  0  0  0  0  0
    5.9979   -0.4527    6.0588 H   0  0  0  0  0  0
    7.2289    1.6480    5.5022 H   0  0  0  0  0  0
    5.6584    4.3887    3.3245 H   0  0  0  0  0  0
    7.3997    4.0613    5.8840 H   0  0  0  0  0  0
    7.1295    5.5812    4.9444 H   0  0  0  0  0  0
    8.0981    4.4544    2.8289 H   0  0  0  0  0  0
    8.3722    2.9300    3.7597 H   0  0  0  0  0  0
    3.7912    2.9102    3.2542 H   0  0  0  0  0  0
   -0.1117    1.7553    3.9523 H   0  0  0  0  0  0
   -2.3634    1.9571    3.0277 H   0  0  0  0  0  0
   -7.0884    1.3581    2.4861 H   0  0  0  0  0  0
   -7.8368    1.6347    0.9160 H   0  0  0  0  0  0
   -6.7877    2.8542    1.6335 H   0  0  0  0  0  0
   -6.1542    1.9498   -1.2072 H   0  0  0  0  0  0
   -4.4546    1.5546   -0.9747 H   0  0  0  0  0  0
   -5.1266    2.9985   -0.2413 H   0  0  0  0  0  0
   -7.5707   -1.0134    1.7195 H   0  0  0  0  0  0
   -6.1251   -0.9048    2.7184 H   0  0  0  0  0  0
   -6.3416   -2.2666    1.6362 H   0  0  0  0  0  0
   -7.3051   -0.5683   -0.9580 H   0  0  0  0  0  0
   -6.2548   -1.9783   -0.8539 H   0  0  0  0  0  0
   -5.6632   -0.5091   -1.5927 H   0  0  0  0  0  0
   -1.9969   -1.9033    1.2045 H   0  0  0  0  0  0
    0.2736   -2.1290    2.1096 H   0  0  0  0  0  0
  1  2  2  0  0  0
  2 13  1  0  0  0
  2  3  1  0  0  0
  3  4  1  0  0  0
  3 28  1  0  0  0
  4 12  1  0  0  0
  4  5  2  0  0  0
  5  6  1  0  0  0
  6  7  2  0  0  0
  6 29  1  0  0  0
  7  8  1  0  0  0
  7 30  1  0  0  0
  8 12  2  0  0  0
  8  9  1  0  0  0
  9 10  1  0  0  0
  9 11  1  0  0  0
  9 31  1  0  0  0
 10 33  1  0  0  0
 10 32  1  0  0  0
 10 11  1  0  0  0
 11 34  1  0  0  0
 11 35  1  0  0  0
 12 36  1  0  0  0
 13 14  1  0  0  0
 13 27  2  0  0  0
 14 15  2  0  0  0
 14 37  1  0  0  0
 15 38  1  0  0  0
 15 16  1  0  0  0
 16 17  1  0  0  0
 16 26  2  0  0  0
 17 18  1  0  0  0
 17 25  1  0  0  0
 18 19  1  0  0  0
 19 20  1  0  0  0
 19 21  1  0  0  0
 19 22  1  0  0  0
 20 39  1  0  0  0
 20 40  1  0  0  0
 20 41  1  0  0  0
 21 44  1  0  0  0
 21 42  1  0  0  0
 21 43  1  0  0  0
 22 25  1  0  0  0
 22 23  1  0  0  0
 22 24  1  0  0  0
 23 46  1  0  0  0
 23 45  1  0  0  0
 23 47  1  0  0  0
 24 49  1  0  0  0
 24 48  1  0  0  0
 24 50  1  0  0  0
 26 27  1  0  0  0
 26 51  1  0  0  0
 27 52  1  0  0  0
M  END
> <r_mmod_Potential_Energy-S-OPLS>
-39.2619400024414

> <b_mmod_Minimization_Converged-S-OPLS>
1

> <r_mmod_RMS_Derivative-S-OPLS>
0.000662445148918778

> <i_mmod_Times_Found-S-OPLS>
96

> <r_mmod_Relative_Potential_Energy-S-OPLS>
20.9886093139648

> <i_mmod_Conformation-S-OPLS>
8

> <i_mmod_Serial_Number-S-OPLS>
1

$$$$
