pyrmd2.xyz
                    3D
 Schrodinger Suite 2022-4.
 23 24  0  0  1  0            999 V2000
    2.5479    2.9094    1.2728 Cl  0  0  0  0  0  0
    2.4480    1.3949    0.4540 C   0  0  0  0  0  0
    3.4968    1.0013   -0.3804 C   0  0  0  0  0  0
    3.3778   -0.2329   -1.0237 C   0  0  0  0  0  0
    4.6468   -0.7652   -2.0630 Cl  0  0  0  0  0  0
    2.2911   -1.0309   -0.8563 N   0  0  0  0  0  0
    1.3218   -0.5598   -0.0293 C   0  0  0  0  0  0
    0.1184   -1.4583    0.2034 C   0  0  0  0  0  0
    0.2937   -2.4173    1.3730 C   0  0  0  0  0  0
   -0.1161   -2.0372    2.6538 C   0  0  0  0  0  0
    0.0236   -2.9229    3.7194 C   0  0  0  0  0  0
    0.5677   -4.1869    3.4995 C   0  0  0  0  0  0
    0.9737   -4.5733    2.2236 C   0  0  0  0  0  0
    0.8341   -3.6880    1.1577 C   0  0  0  0  0  0
    1.3478    0.6205    0.6428 N   0  0  0  0  0  0
    4.3655    1.6250   -0.5208 H   0  0  0  0  0  0
   -0.0930   -2.0231   -0.7058 H   0  0  0  0  0  0
   -0.7677   -0.8422    0.3633 H   0  0  0  0  0  0
   -0.5331   -1.0551    2.8261 H   0  0  0  0  0  0
   -0.2865   -2.6300    4.7122 H   0  0  0  0  0  0
    0.6778   -4.8733    4.3268 H   0  0  0  0  0  0
    1.3969   -5.5543    2.0619 H   0  0  0  0  0  0
    1.1542   -3.9863    0.1694 H   0  0  0  0  0  0
  1  2  1  0  0  0
  2 15  2  0  0  0
  2  3  1  0  0  0
  3  4  2  0  0  0
  3 16  1  0  0  0
  4  6  1  0  0  0
  4  5  1  0  0  0
  6  7  2  0  0  0
  7  8  1  0  0  0
  7 15  1  0  0  0
  8  9  1  0  0  0
  8 17  1  0  0  0
  8 18  1  0  0  0
  9 14  1  0  0  0
  9 10  2  0  0  0
 10 11  1  0  0  0
 10 19  1  0  0  0
 11 12  2  0  0  0
 11 20  1  0  0  0
 12 13  1  0  0  0
 12 21  1  0  0  0
 13 14  2  0  0  0
 13 22  1  0  0  0
 14 23  1  0  0  0
M  END
> <r_mmod_Potential_Energy-S-OPLS>
20.4199352264404

> <b_mmod_Minimization_Converged-S-OPLS>
1

> <r_mmod_RMS_Derivative-S-OPLS>
0.000759839778766036

> <i_mmod_Times_Found-S-OPLS>
144

> <r_mmod_Relative_Potential_Energy-S-OPLS>
0

> <i_mmod_Conformation-S-OPLS>
1

> <i_mmod_Serial_Number-S-OPLS>
1

$$$$
pyrmd2.xyz
                    3D
 Schrodinger Suite 2022-4.
 23 24  0  0  1  0            999 V2000
    3.5518    0.8378   -3.1456 Cl  0  0  0  0  0  0
    2.9951    0.3997   -1.5733 C   0  0  0  0  0  0
    3.2630    1.2463   -0.4957 C   0  0  0  0  0  0
    2.7949    0.8550    0.7602 C   0  0  0  0  0  0
    3.0995    1.8656    2.1238 Cl  0  0  0  0  0  0
    2.1050   -0.3004    0.9422 N   0  0  0  0  0  0
    1.8908   -1.0621   -0.1647 C   0  0  0  0  0  0
    1.1205   -2.3736   -0.0220 C   0  0  0  0  0  0
    0.6315   -2.7457    1.3764 C   0  0  0  0  0  0
   -0.6369   -2.3418    1.8022 C   0  0  0  0  0  0
   -1.0920   -2.7007    3.0684 C   0  0  0  0  0  0
   -0.2798   -3.4671    3.9021 C   0  0  0  0  0  0
    0.9834   -3.8780    3.4810 C   0  0  0  0  0  0
    1.4389   -3.5192    2.2148 C   0  0  0  0  0  0
    2.3075   -0.7624   -1.4225 N   0  0  0  0  0  0
    3.8099    2.1665   -0.6277 H   0  0  0  0  0  0
    1.7515   -3.1791   -0.3997 H   0  0  0  0  0  0
    0.2635   -2.3375   -0.6959 H   0  0  0  0  0  0
   -1.2659   -1.7432    1.1589 H   0  0  0  0  0  0
   -2.0692   -2.3842    3.4036 H   0  0  0  0  0  0
   -0.6321   -3.7434    4.8856 H   0  0  0  0  0  0
    1.6078   -4.4700    4.1346 H   0  0  0  0  0  0
    2.4207   -3.8344    1.8918 H   0  0  0  0  0  0
  1  2  1  0  0  0
  2 15  2  0  0  0
  2  3  1  0  0  0
  3  4  2  0  0  0
  3 16  1  0  0  0
  4  6  1  0  0  0
  4  5  1  0  0  0
  6  7  2  0  0  0
  7  8  1  0  0  0
  7 15  1  0  0  0
  8  9  1  0  0  0
  8 17  1  0  0  0
  8 18  1  0  0  0
  9 14  1  0  0  0
  9 10  2  0  0  0
 10 11  1  0  0  0
 10 19  1  0  0  0
 11 12  2  0  0  0
 11 20  1  0  0  0
 12 13  1  0  0  0
 12 21  1  0  0  0
 13 14  2  0  0  0
 13 22  1  0  0  0
 14 23  1  0  0  0
M  END
> <r_mmod_Potential_Energy-S-OPLS>
24.1121444702148

> <b_mmod_Minimization_Converged-S-OPLS>
1

> <r_mmod_RMS_Derivative-S-OPLS>
0.000459997390862554

> <i_mmod_Times_Found-S-OPLS>
56

> <r_mmod_Relative_Potential_Energy-S-OPLS>
3.69220924377441

> <i_mmod_Conformation-S-OPLS>
2

> <i_mmod_Serial_Number-S-OPLS>
1

$$$$
