pyrmd3.xyz
                    3D
 Schrodinger Suite 2022-4.
 16 16  0  0  1  0            999 V2000
    4.2892    1.2621   -0.5842 Cl  0  0  0  0  0  0
    2.6957    0.6592   -0.3167 C   0  0  0  0  0  0
    2.1457    0.8656    0.9090 N   0  0  0  0  0  0
    0.8905    0.3847    1.1045 C   0  0  0  0  0  0
    0.1832   -0.2930    0.1057 C   0  0  0  0  0  0
   -1.2220   -0.8208    0.3402 C   0  0  0  0  0  0
   -2.2991    0.2116   -0.0213 C   0  0  0  0  0  0
    0.8339   -0.4537   -1.1223 C   0  0  0  0  0  0
    2.0883    0.0156   -1.3484 N   0  0  0  0  0  0
    0.4599    0.5568    2.0804 H   0  0  0  0  0  0
   -1.3660   -1.7346   -0.2395 H   0  0  0  0  0  0
   -1.3248   -1.1231    1.3841 H   0  0  0  0  0  0
   -3.2989   -0.1868    0.1541 H   0  0  0  0  0  0
   -2.1956    1.1187    0.5756 H   0  0  0  0  0  0
   -2.2375    0.4982   -1.0720 H   0  0  0  0  0  0
    0.3575   -0.9605   -1.9491 H   0  0  0  0  0  0
  1  2  1  0  0  0
  2  3  2  0  0  0
  2  9  1  0  0  0
  3  4  1  0  0  0
  4 10  1  0  0  0
  4  5  2  0  0  0
  5  6  1  0  0  0
  5  8  1  0  0  0
  6 12  1  0  0  0
  6  7  1  0  0  0
  6 11  1  0  0  0
  7 14  1  0  0  0
  7 13  1  0  0  0
  7 15  1  0  0  0
  8  9  2  0  0  0
  8 16  1  0  0  0
M  END
> <r_mmod_Potential_Energy-S-OPLS>
49.5459327697754

> <b_mmod_Minimization_Converged-S-OPLS>
1

> <r_mmod_RMS_Derivative-S-OPLS>
0.000988100655376911

> <i_mmod_Times_Found-S-OPLS>
63

> <r_mmod_Relative_Potential_Energy-S-OPLS>
0

> <i_mmod_Conformation-S-OPLS>
1

> <i_mmod_Serial_Number-S-OPLS>
1

$$$$
pyrmd3.xyz
                    3D
 Schrodinger Suite 2022-4.
 16 16  0  0  1  0            999 V2000
    4.3738    0.9651   -0.6909 Cl  0  0  0  0  0  0
    2.7284    0.5969   -0.3291 C   0  0  0  0  0  0
    2.3351    0.6961    0.9673 N   0  0  0  0  0  0
    1.0365    0.4027    1.2352 C   0  0  0  0  0  0
    0.1276    0.0150    0.2439 C   0  0  0  0  0  0
   -1.3197   -0.3009    0.6145 C   0  0  0  0  0  0
   -2.2368   -0.7172   -0.5497 C   0  0  0  0  0  0
    0.6338   -0.0566   -1.0621 C   0  0  0  0  0  0
    1.9269    0.2303   -1.3627 N   0  0  0  0  0  0
    0.7365    0.4854    2.2700 H   0  0  0  0  0  0
   -1.3124   -1.0954    1.3630 H   0  0  0  0  0  0
   -1.7438    0.5777    1.1044 H   0  0  0  0  0  0
   -3.2465   -0.9222   -0.1922 H   0  0  0  0  0  0
   -2.3126    0.0702   -1.3006 H   0  0  0  0  0  0
   -1.8762   -1.6230   -1.0389 H   0  0  0  0  0  0
    0.0173   -0.3452   -1.9002 H   0  0  0  0  0  0
  1  2  1  0  0  0
  2  3  2  0  0  0
  2  9  1  0  0  0
  3  4  1  0  0  0
  4 10  1  0  0  0
  4  5  2  0  0  0
  5  6  1  0  0  0
  5  8  1  0  0  0
  6 12  1  0  0  0
  6  7  1  0  0  0
  6 11  1  0  0  0
  7 14  1  0  0  0
  7 13  1  0  0  0
  7 15  1  0  0  0
  8  9  2  0  0  0
  8 16  1  0  0  0
M  END
> <r_mmod_Potential_Energy-S-OPLS>
52.4847869873047

> <b_mmod_Minimization_Converged-S-OPLS>
1

> <r_mmod_RMS_Derivative-S-OPLS>
0.000674507115036249

> <i_mmod_Times_Found-S-OPLS>
36

> <r_mmod_Relative_Potential_Energy-S-OPLS>
2.9388542175293

> <i_mmod_Conformation-S-OPLS>
2

> <i_mmod_Serial_Number-S-OPLS>
1

$$$$
