pyrmd5.xyz
                    3D
 Schrodinger Suite 2022-4.
 25 26  0  0  1  0            999 V2000
   -4.5793   -2.1432    0.2004 O   0  0  0  0  0  0
   -4.0900   -1.0184    0.1031 C   0  0  0  0  0  0
   -2.6283   -0.7525    0.0604 C   0  0  0  0  0  0
   -1.7174   -1.8144    0.1322 C   0  0  0  0  0  0
   -0.3731   -1.6330    0.0980 N   0  0  0  0  0  0
   -2.0742    0.5352   -0.0510 C   0  0  0  0  0  0
   -2.9118    1.8027   -0.1403 C   0  0  0  0  0  0
   -0.7315    0.7411   -0.0871 N   0  0  0  0  0  0
    0.0788   -0.3523   -0.0113 C   0  0  0  0  0  0
    1.5681   -0.1306   -0.0508 C   0  0  0  0  0  0
    2.1084    1.1625   -0.1625 C   0  0  0  0  0  0
    3.4851    1.3709   -0.1994 C   0  0  0  0  0  0
    4.3489    0.2833   -0.1246 C   0  0  0  0  0  0
    3.8441   -1.0080   -0.0136 C   0  0  0  0  0  0
    2.4665   -1.2096    0.0227 C   0  0  0  0  0  0
   -4.7287   -0.1376    0.0418 H   0  0  0  0  0  0
   -2.0548   -2.8396    0.2193 H   0  0  0  0  0  0
   -3.5317    1.9115    0.7494 H   0  0  0  0  0  0
   -2.2920    2.6972   -0.2211 H   0  0  0  0  0  0
   -3.5575    1.7699   -1.0177 H   0  0  0  0  0  0
    1.4583    2.0229   -0.2221 H   0  0  0  0  0  0
    3.8788    2.3733   -0.2856 H   0  0  0  0  0  0
    5.4175    0.4422   -0.1530 H   0  0  0  0  0  0
    4.5162   -1.8519    0.0444 H   0  0  0  0  0  0
    2.0993   -2.2218    0.1094 H   0  0  0  0  0  0
  1  2  2  0  0  0
  2  3  1  0  0  0
  2 16  1  0  0  0
  3  4  2  0  0  0
  3  6  1  0  0  0
  4 17  1  0  0  0
  4  5  1  0  0  0
  5  9  2  0  0  0
  6  7  1  0  0  0
  6  8  2  0  0  0
  7 19  1  0  0  0
  7 18  1  0  0  0
  7 20  1  0  0  0
  8  9  1  0  0  0
  9 10  1  0  0  0
 10 15  1  0  0  0
 10 11  2  0  0  0
 11 12  1  0  0  0
 11 21  1  0  0  0
 12 13  2  0  0  0
 12 22  1  0  0  0
 13 14  1  0  0  0
 13 23  1  0  0  0
 14 15  2  0  0  0
 14 24  1  0  0  0
 15 25  1  0  0  0
M  END
> <r_mmod_Potential_Energy-S-OPLS>
51.8080902099609

> <b_mmod_Minimization_Converged-S-OPLS>
1

> <r_mmod_RMS_Derivative-S-OPLS>
0.00088168669026345

> <i_mmod_Times_Found-S-OPLS>
108

> <r_mmod_Relative_Potential_Energy-S-OPLS>
0

> <i_mmod_Conformation-S-OPLS>
1

> <i_mmod_Serial_Number-S-OPLS>
1

$$$$
pyrmd5.xyz
                    3D
 Schrodinger Suite 2022-4.
 25 26  0  0  1  0            999 V2000
   -4.9493   -0.6777    0.0883 O   0  0  0  0  0  0
   -3.9915   -1.4472    0.1361 C   0  0  0  0  0  0
   -2.5583   -1.0453    0.0829 C   0  0  0  0  0  0
   -1.5762   -2.0420    0.1486 C   0  0  0  0  0  0
   -0.2474   -1.7727    0.1076 N   0  0  0  0  0  0
   -2.0887    0.2788   -0.0303 C   0  0  0  0  0  0
   -2.9987    1.4951   -0.1147 C   0  0  0  0  0  0
   -0.7620    0.5711   -0.0732 N   0  0  0  0  0  0
    0.1188   -0.4656   -0.0027 C   0  0  0  0  0  0
    1.5899   -0.1455   -0.0499 C   0  0  0  0  0  0
    2.0419    1.1810   -0.1627 C   0  0  0  0  0  0
    3.4012    1.4810   -0.2066 C   0  0  0  0  0  0
    4.3363    0.4536   -0.1381 C   0  0  0  0  0  0
    3.9196   -0.8687   -0.0262 C   0  0  0  0  0  0
    2.5587   -1.1622    0.0172 C   0  0  0  0  0  0
   -4.1579   -2.5214    0.2248 H   0  0  0  0  0  0
   -1.8264   -3.0906    0.2365 H   0  0  0  0  0  0
   -3.6244    1.5588    0.7754 H   0  0  0  0  0  0
   -2.4403    2.4281   -0.1979 H   0  0  0  0  0  0
   -3.6502    1.4174   -0.9851 H   0  0  0  0  0  0
    1.3351    1.9961   -0.2176 H   0  0  0  0  0  0
    3.7261    2.5078   -0.2936 H   0  0  0  0  0  0
    5.3916    0.6840   -0.1720 H   0  0  0  0  0  0
    4.6473   -1.6655    0.0269 H   0  0  0  0  0  0
    2.2608   -2.1966    0.1044 H   0  0  0  0  0  0
  1  2  2  0  0  0
  2  3  1  0  0  0
  2 16  1  0  0  0
  3  4  2  0  0  0
  3  6  1  0  0  0
  4 17  1  0  0  0
  4  5  1  0  0  0
  5  9  2  0  0  0
  6  7  1  0  0  0
  6  8  2  0  0  0
  7 19  1  0  0  0
  7 18  1  0  0  0
  7 20  1  0  0  0
  8  9  1  0  0  0
  9 10  1  0  0  0
 10 15  1  0  0  0
 10 11  2  0  0  0
 11 12  1  0  0  0
 11 21  1  0  0  0
 12 13  2  0  0  0
 12 22  1  0  0  0
 13 14  1  0  0  0
 13 23  1  0  0  0
 14 15  2  0  0  0
 14 24  1  0  0  0
 15 25  1  0  0  0
M  END
> <r_mmod_Potential_Energy-S-OPLS>
58.2331695556641

> <b_mmod_Minimization_Converged-S-OPLS>
1

> <r_mmod_RMS_Derivative-S-OPLS>
0.000971223867964

> <i_mmod_Times_Found-S-OPLS>
92

> <r_mmod_Relative_Potential_Energy-S-OPLS>
6.42507934570312

> <i_mmod_Conformation-S-OPLS>
2

> <i_mmod_Serial_Number-S-OPLS>
1

$$$$
