pyrmd1.xyz
                    3D
 Schrodinger Suite 2022-4.
 24 24  0  0  1  0            999 V2000
   -3.9249    2.1845    0.2188 N   0  0  0  0  0  0
   -2.7789    1.4355    0.0997 C   0  0  0  0  0  0
   -2.9269    0.1720   -0.3388 N   0  0  0  0  0  0
   -1.7911   -0.5658   -0.4553 C   0  0  0  0  0  0
   -2.0379   -1.9810   -0.9558 C   0  0  0  0  0  0
   -0.5149   -0.0481   -0.1369 C   0  0  0  0  0  0
    0.7610   -0.8310   -0.2524 C   0  0  0  0  0  0
    1.8542   -0.1185    0.1103 O   0  0  0  0  0  0
    3.1458   -0.7067    0.0615 C   0  0  0  0  0  0
    4.1708    0.3308    0.5250 C   0  0  0  0  0  0
    0.8242   -2.0000   -0.6354 O   0  0  0  0  0  0
   -0.5045    1.2860    0.3095 C   0  0  0  0  0  0
   -1.6251    2.0414    0.4336 N   0  0  0  0  0  0
   -3.8397    3.1313    0.5445 H   0  0  0  0  0  0
   -4.7984    1.7517   -0.0254 H   0  0  0  0  0  0
   -1.6888   -2.7049   -0.2201 H   0  0  0  0  0  0
   -3.0941   -2.1780   -1.1420 H   0  0  0  0  0  0
   -1.4985   -2.1485   -1.8875 H   0  0  0  0  0  0
    3.3717   -1.0338   -0.9554 H   0  0  0  0  0  0
    3.1819   -1.5881    0.7050 H   0  0  0  0  0  0
    4.1554    1.2109   -0.1182 H   0  0  0  0  0  0
    3.9653    0.6556    1.5452 H   0  0  0  0  0  0
    5.1787   -0.0829    0.5021 H   0  0  0  0  0  0
    0.4146    1.7876    0.5818 H   0  0  0  0  0  0
  1 15  1  0  0  0
  1  2  1  0  0  0
  1 14  1  0  0  0
  2 13  1  0  0  0
  2  3  2  0  0  0
  3  4  1  0  0  0
  4  6  2  0  0  0
  4  5  1  0  0  0
  5 16  1  0  0  0
  5 17  1  0  0  0
  5 18  1  0  0  0
  6 12  1  0  0  0
  6  7  1  0  0  0
  7  8  1  0  0  0
  7 11  2  0  0  0
  8  9  1  0  0  0
  9 10  1  0  0  0
  9 20  1  0  0  0
  9 19  1  0  0  0
 10 22  1  0  0  0
 10 21  1  0  0  0
 10 23  1  0  0  0
 12 13  2  0  0  0
 12 24  1  0  0  0
M  END
> <r_mmod_Potential_Energy-S-OPLS>
-380.065704345703

> <b_mmod_Minimization_Converged-S-OPLS>
1

> <r_mmod_RMS_Derivative-S-OPLS>
0.000549864897038788

> <i_mmod_Times_Found-S-OPLS>
58

> <r_mmod_Relative_Potential_Energy-S-OPLS>
0

> <i_mmod_Conformation-S-OPLS>
1

> <i_mmod_Serial_Number-S-OPLS>
1

$$$$
pyrmd1.xyz
                    3D
 Schrodinger Suite 2022-4.
 24 24  0  0  1  0            999 V2000
   -4.0058    2.1037    0.0762 N   0  0  0  0  0  0
   -2.8248    1.4016    0.0471 C   0  0  0  0  0  0
   -2.8629    0.1800   -0.5159 N   0  0  0  0  0  0
   -1.6928   -0.5114   -0.5427 C   0  0  0  0  0  0
   -1.8147   -1.8812   -1.1930 C   0  0  0  0  0  0
   -0.4913    0.0109   -0.0117 C   0  0  0  0  0  0
    0.8195   -0.7210   -0.0241 C   0  0  0  0  0  0
    1.8253   -0.0195    0.5612 O   0  0  0  0  0  0
    3.1494   -0.5390    0.6353 C   0  0  0  0  0  0
    3.9122   -0.2874   -0.6730 C   0  0  0  0  0  0
    0.9812   -1.8425   -0.5065 O   0  0  0  0  0  0
   -0.5933    1.2982    0.5464 C   0  0  0  0  0  0
   -1.7501    2.0069    0.5844 N   0  0  0  0  0  0
   -4.0024    3.0184    0.4922 H   0  0  0  0  0  0
   -4.8217    1.6703   -0.3193 H   0  0  0  0  0  0
   -1.5315   -2.6591   -0.4845 H   0  0  0  0  0  0
   -2.8295   -2.0921   -1.5315 H   0  0  0  0  0  0
   -1.1548   -1.9455   -2.0576 H   0  0  0  0  0  0
    3.1406   -1.6026    0.8837 H   0  0  0  0  0  0
    3.6628   -0.0355    1.4550 H   0  0  0  0  0  0
    3.4435   -0.8105   -1.5072 H   0  0  0  0  0  0
    3.9372    0.7751   -0.9146 H   0  0  0  0  0  0
    4.9404   -0.6399   -0.5968 H   0  0  0  0  0  0
    0.2611    1.7991    0.9816 H   0  0  0  0  0  0
  1 15  1  0  0  0
  1  2  1  0  0  0
  1 14  1  0  0  0
  2 13  1  0  0  0
  2  3  2  0  0  0
  3  4  1  0  0  0
  4  6  2  0  0  0
  4  5  1  0  0  0
  5 16  1  0  0  0
  5 17  1  0  0  0
  5 18  1  0  0  0
  6 12  1  0  0  0
  6  7  1  0  0  0
  7  8  1  0  0  0
  7 11  2  0  0  0
  8  9  1  0  0  0
  9 10  1  0  0  0
  9 20  1  0  0  0
  9 19  1  0  0  0
 10 22  1  0  0  0
 10 21  1  0  0  0
 10 23  1  0  0  0
 12 13  2  0  0  0
 12 24  1  0  0  0
M  END
> <r_mmod_Potential_Energy-S-OPLS>
-379.822937011719

> <b_mmod_Minimization_Converged-S-OPLS>
1

> <r_mmod_RMS_Derivative-S-OPLS>
0.000761303002946079

> <i_mmod_Times_Found-S-OPLS>
83

> <r_mmod_Relative_Potential_Energy-S-OPLS>
0.242767333984375

> <i_mmod_Conformation-S-OPLS>
2

> <i_mmod_Serial_Number-S-OPLS>
1

$$$$
pyrmd1.xyz
                    3D
 Schrodinger Suite 2022-4.
 24 24  0  0  1  0            999 V2000
   -4.3368    1.4669   -0.2407 N   0  0  0  0  0  0
   -3.0183    1.1150   -0.0788 C   0  0  0  0  0  0
   -2.6037    0.0113   -0.7276 N   0  0  0  0  0  0
   -1.2988   -0.3349   -0.5665 C   0  0  0  0  0  0
   -0.9256   -1.6066   -1.3132 C   0  0  0  0  0  0
   -0.4103    0.4233    0.2336 C   0  0  0  0  0  0
    1.0425    0.1475    0.4834 C   0  0  0  0  0  0
    1.5693   -0.8130   -0.3008 O   0  0  0  0  0  0
    2.9407   -1.1638   -0.1910 C   0  0  0  0  0  0
    3.2357   -2.2820   -1.1932 C   0  0  0  0  0  0
    1.7092    0.7803    1.3055 O   0  0  0  0  0  0
   -0.9762    1.5465    0.8594 C   0  0  0  0  0  0
   -2.2760    1.9087    0.7137 N   0  0  0  0  0  0
   -4.9124    0.8888   -0.8273 H   0  0  0  0  0  0
   -4.6675    2.2872    0.2366 H   0  0  0  0  0  0
   -0.4893   -2.3329   -0.6286 H   0  0  0  0  0  0
   -1.7892   -2.0786   -1.7834 H   0  0  0  0  0  0
   -0.2035   -1.3822   -2.0974 H   0  0  0  0  0  0
    3.1644   -1.4967    0.8246 H   0  0  0  0  0  0
    3.5688   -0.2948   -0.3971 H   0  0  0  0  0  0
    2.6248   -3.1617   -0.9895 H   0  0  0  0  0  0
    3.0296   -1.9574   -2.2133 H   0  0  0  0  0  0
    4.2821   -2.5819   -1.1423 H   0  0  0  0  0  0
   -0.3845    2.1904    1.4985 H   0  0  0  0  0  0
  1 15  1  0  0  0
  1  2  1  0  0  0
  1 14  1  0  0  0
  2 13  1  0  0  0
  2  3  2  0  0  0
  3  4  1  0  0  0
  4  6  2  0  0  0
  4  5  1  0  0  0
  5 16  1  0  0  0
  5 17  1  0  0  0
  5 18  1  0  0  0
  6 12  1  0  0  0
  6  7  1  0  0  0
  7  8  1  0  0  0
  7 11  2  0  0  0
  8  9  1  0  0  0
  9 10  1  0  0  0
  9 20  1  0  0  0
  9 19  1  0  0  0
 10 22  1  0  0  0
 10 21  1  0  0  0
 10 23  1  0  0  0
 12 13  2  0  0  0
 12 24  1  0  0  0
M  END
> <r_mmod_Potential_Energy-S-OPLS>
-375.946380615234

> <b_mmod_Minimization_Converged-S-OPLS>
1

> <r_mmod_RMS_Derivative-S-OPLS>
0.000370764028048143

> <i_mmod_Times_Found-S-OPLS>
64

> <r_mmod_Relative_Potential_Energy-S-OPLS>
4.11932373046875

> <i_mmod_Conformation-S-OPLS>
3

> <i_mmod_Serial_Number-S-OPLS>
1

$$$$
pyrmd1.xyz
                    3D
 Schrodinger Suite 2022-4.
 24 24  0  0  1  0            999 V2000
   -4.3233    1.5138    0.0260 N   0  0  0  0  0  0
   -2.9964    1.1567    0.0069 C   0  0  0  0  0  0
   -2.7227   -0.1366   -0.2462 N   0  0  0  0  0  0
   -1.4092   -0.4871   -0.2654 C   0  0  0  0  0  0
   -1.1915   -1.9711   -0.5174 C   0  0  0  0  0  0
   -0.3746    0.4527   -0.0448 C   0  0  0  0  0  0
    1.0994    0.1855   -0.0476 C   0  0  0  0  0  0
    1.4489   -0.9875   -0.6223 O   0  0  0  0  0  0
    2.8110   -1.3904   -0.7242 C   0  0  0  0  0  0
    3.2908   -2.0375    0.5826 C   0  0  0  0  0  0
    1.9249    1.0001    0.3707 O   0  0  0  0  0  0
   -0.8002    1.7648    0.2194 C   0  0  0  0  0  0
   -2.1055    2.1358    0.2462 N   0  0  0  0  0  0
   -4.5499    2.4746    0.2150 H   0  0  0  0  0  0
   -5.0083    0.7998   -0.1487 H   0  0  0  0  0  0
   -0.5426   -2.3949    0.2482 H   0  0  0  0  0  0
   -2.1258   -2.5336   -0.5008 H   0  0  0  0  0  0
   -0.7304   -2.1204   -1.4930 H   0  0  0  0  0  0
    3.4504   -0.5493   -1.0013 H   0  0  0  0  0  0
    2.8873   -2.1151   -1.5353 H   0  0  0  0  0  0
    3.2620   -1.3241    1.4069 H   0  0  0  0  0  0
    2.6653   -2.8883    0.8525 H   0  0  0  0  0  0
    4.3171   -2.3908    0.4867 H   0  0  0  0  0  0
   -0.0875    2.5572    0.4125 H   0  0  0  0  0  0
  1 15  1  0  0  0
  1  2  1  0  0  0
  1 14  1  0  0  0
  2 13  1  0  0  0
  2  3  2  0  0  0
  3  4  1  0  0  0
  4  6  2  0  0  0
  4  5  1  0  0  0
  5 16  1  0  0  0
  5 17  1  0  0  0
  5 18  1  0  0  0
  6 12  1  0  0  0
  6  7  1  0  0  0
  7  8  1  0  0  0
  7 11  2  0  0  0
  8  9  1  0  0  0
  9 10  1  0  0  0
  9 20  1  0  0  0
  9 19  1  0  0  0
 10 22  1  0  0  0
 10 21  1  0  0  0
 10 23  1  0  0  0
 12 13  2  0  0  0
 12 24  1  0  0  0
M  END
> <r_mmod_Potential_Energy-S-OPLS>
-375.401763916016

> <b_mmod_Minimization_Converged-S-OPLS>
1

> <r_mmod_RMS_Derivative-S-OPLS>
0.000715676054824144

> <i_mmod_Times_Found-S-OPLS>
95

> <r_mmod_Relative_Potential_Energy-S-OPLS>
4.6639404296875

> <i_mmod_Conformation-S-OPLS>
4

> <i_mmod_Serial_Number-S-OPLS>
1

$$$$
