pyrz3.xyz
                    3D
 Schrodinger Suite 2022-4.
 19 19  0  0  1  0            999 V2000
   -3.7674   -0.4657    0.4279 C   0  0  0  0  0  0
   -2.2967   -0.1989    0.1823 C   0  0  0  0  0  0
   -1.4641   -0.3867    1.2392 N   0  0  0  0  0  0
   -0.1407   -0.1520    1.0369 C   0  0  0  0  0  0
    0.3572    0.2673   -0.2076 C   0  0  0  0  0  0
    1.8207    0.5162   -0.3937 C   0  0  0  0  0  0
    2.1502    0.9156   -1.6477 O   0  0  0  0  0  0
    3.5033    1.1916   -1.9816 C   0  0  0  0  0  0
    2.6471    0.3708    0.5109 O   0  0  0  0  0  0
   -0.4910    0.4521   -1.2613 N   0  0  0  0  0  0
   -1.8144    0.2179   -1.0610 C   0  0  0  0  0  0
   -4.1431    0.1862    1.2172 H   0  0  0  0  0  0
   -4.3646   -0.2919   -0.4674 H   0  0  0  0  0  0
   -3.9171   -1.5000    0.7392 H   0  0  0  0  0  0
    0.5131   -0.3046    1.8851 H   0  0  0  0  0  0
    3.9027    1.9972   -1.3633 H   0  0  0  0  0  0
    3.5746    1.4968   -3.0255 H   0  0  0  0  0  0
    4.1291    0.3087   -1.8415 H   0  0  0  0  0  0
   -2.4669    0.3701   -1.9070 H   0  0  0  0  0  0
  1 12  1  0  0  0
  1  2  1  0  0  0
  1 13  1  0  0  0
  1 14  1  0  0  0
  2  3  1  0  0  0
  2 11  2  0  0  0
  3  4  2  0  0  0
  4 15  1  0  0  0
  4  5  1  0  0  0
  5  6  1  0  0  0
  5 10  2  0  0  0
  6  7  1  0  0  0
  6  9  2  0  0  0
  7  8  1  0  0  0
  8 17  1  0  0  0
  8 16  1  0  0  0
  8 18  1  0  0  0
 10 11  1  0  0  0
 11 19  1  0  0  0
M  END
> <r_mmod_Potential_Energy-S-OPLS>
-1.2007919549942

> <b_mmod_Minimization_Converged-S-OPLS>
1

> <r_mmod_RMS_Derivative-S-OPLS>
0.00077257223892957

> <i_mmod_Times_Found-S-OPLS>
50

> <r_mmod_Relative_Potential_Energy-S-OPLS>
0

> <i_mmod_Conformation-S-OPLS>
1

> <i_mmod_Serial_Number-S-OPLS>
1

$$$$
pyrz3.xyz
                    3D
 Schrodinger Suite 2022-4.
 19 19  0  0  1  0            999 V2000
   -3.6466   -0.5636    0.8308 C   0  0  0  0  0  0
   -2.2519   -0.2371    0.3382 C   0  0  0  0  0  0
   -1.2471   -0.3590    1.2440 N   0  0  0  0  0  0
    0.0113   -0.0700    0.8192 C   0  0  0  0  0  0
    0.2746    0.3393   -0.5008 C   0  0  0  0  0  0
    1.6496    0.6631   -0.9931 C   0  0  0  0  0  0
    2.6007    0.5198   -0.0373 O   0  0  0  0  0  0
    3.9641    0.7873   -0.3365 C   0  0  0  0  0  0
    1.8985    1.0233   -2.1467 O   0  0  0  0  0  0
   -0.7452    0.4568   -1.3982 N   0  0  0  0  0  0
   -2.0038    0.1683   -0.9754 C   0  0  0  0  0  0
   -3.9180    0.0912    1.6594 H   0  0  0  0  0  0
   -4.3916   -0.4405    0.0444 H   0  0  0  0  0  0
   -3.6920   -1.5952    1.1814 H   0  0  0  0  0  0
    0.7973   -0.1727    1.5539 H   0  0  0  0  0  0
    4.3257    0.1343   -1.1325 H   0  0  0  0  0  0
    4.5802    0.6197    0.5469 H   0  0  0  0  0  0
    4.0993    1.8225   -0.6544 H   0  0  0  0  0  0
   -2.7936    0.2688   -1.7040 H   0  0  0  0  0  0
  1 12  1  0  0  0
  1  2  1  0  0  0
  1 13  1  0  0  0
  1 14  1  0  0  0
  2  3  1  0  0  0
  2 11  2  0  0  0
  3  4  2  0  0  0
  4 15  1  0  0  0
  4  5  1  0  0  0
  5  6  1  0  0  0
  5 10  2  0  0  0
  6  7  1  0  0  0
  6  9  2  0  0  0
  7  8  1  0  0  0
  8 17  1  0  0  0
  8 16  1  0  0  0
  8 18  1  0  0  0
 10 11  1  0  0  0
 11 19  1  0  0  0
M  END
> <r_mmod_Potential_Energy-S-OPLS>
1.89425647258759

> <b_mmod_Minimization_Converged-S-OPLS>
1

> <r_mmod_RMS_Derivative-S-OPLS>
0.00081740424502641

> <i_mmod_Times_Found-S-OPLS>
48

> <r_mmod_Relative_Potential_Energy-S-OPLS>
3.09504842758179

> <i_mmod_Conformation-S-OPLS>
2

> <i_mmod_Serial_Number-S-OPLS>
1

$$$$
